


                                __________________________________________
                               |                                          |
                               | NUMERICAL ELECTROMAGNETICS CODE (nec2++) |
                               | Translated to 'C++' in Double Precision  |
                               |        Version 1.5.4 [2014-12-06]        |
                               |__________________________________________|



                               ---------------- COMMENTS ----------------
                                forw: 90, 0 ; back: 0, 0
                               



                                -------- STRUCTURE SPECIFICATION --------
                                COORDINATES MUST BE INPUT IN
                                METERS OR BE SCALED TO METERS
                                BEFORE STRUCTURE INPUT IS ENDED
  WIRE                                                                                 SEG FIRST  LAST  TAG
   No:        X1         Y1         Z1         X2         Y2         Z2       RADIUS   No:   SEG   SEG  No:

     1      0.0000     0.0000     0.0000     0.0000     0.0000     0.0582     0.0004     7     1     7    1
     2      0.0625     0.0000     0.0000     0.0625     0.0000     0.0582     0.0004     7     8    14    2
     3      0.1250     0.0000     0.0000     0.1250     0.0000     0.0582     0.0004     7    15    21    3
     4      0.1875     0.0000     0.0000     0.1875     0.0000     0.0582     0.0004     7    22    28    4
     5      0.2500     0.0000     0.0000     0.2500     0.0000     0.0582     0.0004     7    29    35    5
     6      0.3125     0.0000     0.0000     0.3125     0.0000     0.0582     0.0004     7    36    42    6
     7      0.3750     0.0000     0.0000     0.3750     0.0000     0.0582     0.0004     7    43    49    7
     8      0.4375     0.0000     0.0000     0.4375     0.0000     0.0582     0.0004     7    50    56    8

     TOTAL SEGMENTS USED: 56   SEGMENTS IN A SYMMETRIC CELL: 56   SYMMETRY FLAG: 0


                               ---------- SEGMENTATION DATA ----------
                                        COORDINATES IN METERS
                            I+ AND I- INDICATE THE SEGMENTS BEFORE AND AFTER I

   SEG    COORDINATES OF SEGM CENTER     SEGM    ORIENTATION ANGLES    WIRE    CONNECTION DATA   TAG
   No:       X         Y         Z      LENGTH     ALPHA      BETA    RADIUS    I-     I    I+   NO:
     1    0.0000    0.0000    0.0042    0.0083   90.0000    0.0000    0.0004     0     1     2     1
     2    0.0000    0.0000    0.0125    0.0083   90.0000    0.0000    0.0004     1     2     3     1
     3    0.0000    0.0000    0.0208    0.0083   90.0000    0.0000    0.0004     2     3     4     1
     4    0.0000    0.0000    0.0291    0.0083   90.0000    0.0000    0.0004     3     4     5     1
     5    0.0000    0.0000    0.0374    0.0083   90.0000    0.0000    0.0004     4     5     6     1
     6    0.0000    0.0000    0.0457    0.0083   90.0000    0.0000    0.0004     5     6     7     1
     7    0.0000    0.0000    0.0540    0.0083   90.0000    0.0000    0.0004     6     7     0     1
     8    0.0625    0.0000    0.0042    0.0083   90.0000    0.0000    0.0004     0     8     9     2
     9    0.0625    0.0000    0.0125    0.0083   90.0000    0.0000    0.0004     8     9    10     2
    10    0.0625    0.0000    0.0208    0.0083   90.0000    0.0000    0.0004     9    10    11     2
    11    0.0625    0.0000    0.0291    0.0083   90.0000    0.0000    0.0004    10    11    12     2
    12    0.0625    0.0000    0.0374    0.0083   90.0000    0.0000    0.0004    11    12    13     2
    13    0.0625    0.0000    0.0457    0.0083   90.0000    0.0000    0.0004    12    13    14     2
    14    0.0625    0.0000    0.0540    0.0083   90.0000    0.0000    0.0004    13    14     0     2
    15    0.1250    0.0000    0.0042    0.0083   90.0000    0.0000    0.0004     0    15    16     3
    16    0.1250    0.0000    0.0125    0.0083   90.0000    0.0000    0.0004    15    16    17     3
    17    0.1250    0.0000    0.0208    0.0083   90.0000    0.0000    0.0004    16    17    18     3
    18    0.1250    0.0000    0.0291    0.0083   90.0000    0.0000    0.0004    17    18    19     3
    19    0.1250    0.0000    0.0374    0.0083   90.0000    0.0000    0.0004    18    19    20     3
    20    0.1250    0.0000    0.0457    0.0083   90.0000    0.0000    0.0004    19    20    21     3
    21    0.1250    0.0000    0.0540    0.0083   90.0000    0.0000    0.0004    20    21     0     3
    22    0.1875    0.0000    0.0042    0.0083   90.0000    0.0000    0.0004     0    22    23     4
    23    0.1875    0.0000    0.0125    0.0083   90.0000    0.0000    0.0004    22    23    24     4
    24    0.1875    0.0000    0.0208    0.0083   90.0000    0.0000    0.0004    23    24    25     4
    25    0.1875    0.0000    0.0291    0.0083   90.0000    0.0000    0.0004    24    25    26     4
    26    0.1875    0.0000    0.0374    0.0083   90.0000    0.0000    0.0004    25    26    27     4
    27    0.1875    0.0000    0.0457    0.0083   90.0000    0.0000    0.0004    26    27    28     4
    28    0.1875    0.0000    0.0540    0.0083   90.0000    0.0000    0.0004    27    28     0     4
    29    0.2500    0.0000    0.0042    0.0083   90.0000    0.0000    0.0004     0    29    30     5
    30    0.2500    0.0000    0.0125    0.0083   90.0000    0.0000    0.0004    29    30    31     5
    31    0.2500    0.0000    0.0208    0.0083   90.0000    0.0000    0.0004    30    31    32     5
    32    0.2500    0.0000    0.0291    0.0083   90.0000    0.0000    0.0004    31    32    33     5
    33    0.2500    0.0000    0.0374    0.0083   90.0000    0.0000    0.0004    32    33    34     5
    34    0.2500    0.0000    0.0457    0.0083   90.0000    0.0000    0.0004    33    34    35     5
    35    0.2500    0.0000    0.0540    0.0083   90.0000    0.0000    0.0004    34    35     0     5
    36    0.3125    0.0000    0.0042    0.0083   90.0000    0.0000    0.0004     0    36    37     6
    37    0.3125    0.0000    0.0125    0.0083   90.0000    0.0000    0.0004    36    37    38     6
    38    0.3125    0.0000    0.0208    0.0083   90.0000    0.0000    0.0004    37    38    39     6
    39    0.3125    0.0000    0.0291    0.0083   90.0000    0.0000    0.0004    38    39    40     6
    40    0.3125    0.0000    0.0374    0.0083   90.0000    0.0000    0.0004    39    40    41     6
    41    0.3125    0.0000    0.0457    0.0083   90.0000    0.0000    0.0004    40    41    42     6
    42    0.3125    0.0000    0.0540    0.0083   90.0000    0.0000    0.0004    41    42     0     6
    43    0.3750    0.0000    0.0042    0.0083   90.0000    0.0000    0.0004     0    43    44     7
    44    0.3750    0.0000    0.0125    0.0083   90.0000    0.0000    0.0004    43    44    45     7
    45    0.3750    0.0000    0.0208    0.0083   90.0000    0.0000    0.0004    44    45    46     7
    46    0.3750    0.0000    0.0291    0.0083   90.0000    0.0000    0.0004    45    46    47     7
    47    0.3750    0.0000    0.0374    0.0083   90.0000    0.0000    0.0004    46    47    48     7
    48    0.3750    0.0000    0.0457    0.0083   90.0000    0.0000    0.0004    47    48    49     7
    49    0.3750    0.0000    0.0540    0.0083   90.0000    0.0000    0.0004    48    49     0     7
    50    0.4375    0.0000    0.0042    0.0083   90.0000    0.0000    0.0004     0    50    51     8
    51    0.4375    0.0000    0.0125    0.0083   90.0000    0.0000    0.0004    50    51    52     8
    52    0.4375    0.0000    0.0208    0.0083   90.0000    0.0000    0.0004    51    52    53     8
    53    0.4375    0.0000    0.0291    0.0083   90.0000    0.0000    0.0004    52    53    54     8
    54    0.4375    0.0000    0.0374    0.0083   90.0000    0.0000    0.0004    53    54    55     8
    55    0.4375    0.0000    0.0457    0.0083   90.0000    0.0000    0.0004    54    55    56     8
    56    0.4375    0.0000    0.0540    0.0083   90.0000    0.0000    0.0004    55    56     0     8



*****  DATA CARD N0.   1 EK   0     0     0     0 0.00000E+000 0.00000E+000 0.00000E+000 0.00000E+000 0.00000E+000 0.00000E+000
*****  DATA CARD N0.   2 EX   0     1     4     0 9.68954E-001 0.00000E+000 0.00000E+000 0.00000E+000 0.00000E+000 0.00000E+000
*****  DATA CARD N0.   3 EX   0     2     4     0 5.22079E-001 0.00000E+000 0.00000E+000 0.00000E+000 0.00000E+000 0.00000E+000
*****  DATA CARD N0.   4 EX   0     3     4     0 9.66409E-001 0.00000E+000 0.00000E+000 0.00000E+000 0.00000E+000 0.00000E+000
*****  DATA CARD N0.   5 EX   0     4     4     0 4.55793E-001 0.00000E+000 0.00000E+000 0.00000E+000 0.00000E+000 0.00000E+000
*****  DATA CARD N0.   6 EX   0     5     4     0 3.69269E-002 0.00000E+000 0.00000E+000 0.00000E+000 0.00000E+000 0.00000E+000
*****  DATA CARD N0.   7 EX   0     6     4     0 6.17500E-001 0.00000E+000 0.00000E+000 0.00000E+000 0.00000E+000 0.00000E+000
*****  DATA CARD N0.   8 EX   0     7     4     0 1.25875E-001 0.00000E+000 0.00000E+000 0.00000E+000 0.00000E+000 0.00000E+000
*****  DATA CARD N0.   9 EX   0     8     4     0 4.25614E-001 0.00000E+000 0.00000E+000 0.00000E+000 0.00000E+000 0.00000E+000
*****  DATA CARD N0.  10 GN  -1     0     0     0 0.00000E+000 0.00000E+000 0.00000E+000 0.00000E+000 0.00000E+000 0.00000E+000
*****  DATA CARD N0.  11 FR   0     1     0     0 2.40000E+003 0.00000E+000 0.00000E+000 0.00000E+000 0.00000E+000 0.00000E+000
*****  DATA CARD N0.  12 RP   0     1   361  1000 9.00000E+001 0.00000E+000 0.00000E+000 1.00000E+000 0.00000E+000 0.00000E+000


                               --------- FREQUENCY --------
                               FREQUENCY= 2.4000E+003 MHZ
                               WAVELENGTH=1.2491E-001 METERS


                        APPROXIMATE INTEGRATION EMPLOYED FOR SEGMENTS
                        THAT ARE MORE THAN 1.000 WAVELENGTHS APART
                        THE EXTENDED THIN WIRE KERNEL WILL BE USED



                          ------ STRUCTURE IMPEDANCE LOADING ------
                                 THIS STRUCTURE IS NOT LOADED



                            -------- ANTENNA ENVIRONMENT --------
                            FREE SPACE



                             ---------- MATRIX TIMING ----------
                               FILL= 0 msec  FACTOR: 0 msec


                      ----- ANTENNA INPUT PARAMETERS -----
  TAG   SEG       VOLTAGE (VOLTS)         CURRENT (AMPS)         IMPEDANCE (OHMS)        ADMITTANCE (MHOS)     POWER
  NO.   NO.     REAL      IMAGINARY     REAL      IMAGINARY     REAL      IMAGINARY    REAL       IMAGINARY   (WATTS)
   1     4  9.6895E-01  0.0000E+00  1.2457E-02  3.6055E-03  7.1770E+01 -2.0773E+01  1.2856E-02  3.7210E-03  6.0352E-03
   2    11  5.2208E-01  0.0000E+00  8.7094E-03  8.8791E-03  2.9394E+01 -2.9967E+01  1.6682E-02  1.7007E-02  2.2735E-03
   3    18  9.6641E-01  0.0000E+00  1.2335E-02  6.0995E-03  6.2952E+01 -3.1128E+01  1.2764E-02  6.3116E-03  5.9605E-03
   4    25  4.5579E-01  0.0000E+00  6.3327E-03  4.6242E-03  4.6944E+01 -3.4279E+01  1.3894E-02  1.0145E-02  1.4432E-03
   5    32  3.6927E-02  0.0000E+00  1.0070E-03  3.1914E-03  3.3203E+00 -1.0523E+01  2.7269E-02  8.6425E-02  1.8592E-05
   6    39  6.1750E-01  0.0000E+00  7.2690E-03  2.3073E-03  7.7174E+01 -2.4496E+01  1.1772E-02  3.7365E-03  2.2443E-03
   7    46  1.2588E-01  0.0000E+00  3.1294E-03  4.2945E-03  1.3951E+01 -1.9145E+01  2.4861E-02  3.4117E-02  1.9696E-04
   8    53  4.2561E-01  0.0000E+00  4.9150E-03  1.0258E-03  8.2981E+01 -1.7319E+01  1.1548E-02  2.4102E-03  1.0459E-03







                        ----- CURRENTS AND LOCATION -----
                            DISTANCES IN WAVELENGTHS 

   SEG  TAG    COORDINATES OF SEGM CENTER     SEGM    ------------- CURRENT (AMPS) -------------
   No:  No:       X         Y         Z      LENGTH     REAL      IMAGINARY    MAGN        PHASE
     1    1    0.0000    0.0000    0.0333   0.06655  3.5381E-03  5.1794E-04  3.5758E-03    8.328 
     2    1    0.0000    0.0000    0.0998   0.06655  8.3783E-03  1.5202E-03  8.5151E-03   10.284 
     3    1    0.0000    0.0000    0.1664   0.06655  1.1404E-02  2.6353E-03  1.1705E-02   13.012 
     4    1    0.0000    0.0000    0.2329   0.06655  1.2457E-02  3.6055E-03  1.2968E-02   16.142 
     5    1    0.0000    0.0000    0.2995   0.06655  1.1404E-02  2.6353E-03  1.1705E-02   13.012 
     6    1    0.0000    0.0000    0.3660   0.06655  8.3783E-03  1.5202E-03  8.5151E-03   10.284 
     7    1    0.0000    0.0000    0.4326   0.06655  3.5381E-03  5.1794E-04  3.5758E-03    8.328 
     8    2    0.5003    0.0000    0.0333   0.06655  2.4814E-03  2.2561E-03  3.3537E-03   42.278 
     9    2    0.5003    0.0000    0.0998   0.06655  5.8658E-03  5.4915E-03  8.0351E-03   43.112 
    10    2    0.5003    0.0000    0.1664   0.06655  7.9758E-03  7.7723E-03  1.1137E-02   44.260 
    11    2    0.5003    0.0000    0.2329   0.06655  8.7094E-03  8.8791E-03  1.2438E-02   45.553 
    12    2    0.5003    0.0000    0.2995   0.06655  7.9758E-03  7.7723E-03  1.1137E-02   44.260 
    13    2    0.5003    0.0000    0.3660   0.06655  5.8658E-03  5.4915E-03  8.0351E-03   43.112 
    14    2    0.5003    0.0000    0.4326   0.06655  2.4814E-03  2.2561E-03  3.3537E-03   42.278 
    15    3    1.0007    0.0000    0.0333   0.06655  3.5056E-03  1.2314E-03  3.7155E-03   19.354 
    16    3    1.0007    0.0000    0.0998   0.06655  8.2985E-03  3.2039E-03  8.8955E-03   21.110 
    17    3    1.0007    0.0000    0.1664   0.06655  1.1293E-02  4.9216E-03  1.2319E-02   23.547 
    18    3    1.0007    0.0000    0.2329   0.06655  1.2335E-02  6.0995E-03  1.3761E-02   26.311 
    19    3    1.0007    0.0000    0.2995   0.06655  1.1293E-02  4.9216E-03  1.2319E-02   23.547 
    20    3    1.0007    0.0000    0.3660   0.06655  8.2985E-03  3.2039E-03  8.8955E-03   21.110 
    21    3    1.0007    0.0000    0.4326   0.06655  3.5056E-03  1.2314E-03  3.7155E-03   19.354 
    22    4    1.5010    0.0000    0.0333   0.06655  1.8021E-03  1.0786E-03  2.1002E-03   30.900 
    23    4    1.5010    0.0000    0.0998   0.06655  4.2629E-03  2.6879E-03  5.0395E-03   32.233 
    24    4    1.5010    0.0000    0.1664   0.06655  5.7986E-03  3.9214E-03  7.0001E-03   34.069 
    25    4    1.5010    0.0000    0.2329   0.06655  6.3327E-03  4.6242E-03  7.8413E-03   36.137 
    26    4    1.5010    0.0000    0.2995   0.06655  5.7986E-03  3.9214E-03  7.0001E-03   34.069 
    27    4    1.5010    0.0000    0.3660   0.06655  4.2629E-03  2.6879E-03  5.0395E-03   32.233 
    28    4    1.5010    0.0000    0.4326   0.06655  1.8021E-03  1.0786E-03  2.1002E-03   30.900 
    29    5    2.0014    0.0000    0.0333   0.06655  2.9228E-04  8.9036E-04  9.3711E-04   71.827 
    30    5    2.0014    0.0000    0.0998   0.06655  6.8387E-04  2.1153E-03  2.2231E-03   72.084 
    31    5    2.0014    0.0000    0.1664   0.06655  9.2407E-04  2.8974E-03  3.0412E-03   72.311 
    32    5    2.0014    0.0000    0.2329   0.06655  1.0070E-03  3.1914E-03  3.3465E-03   72.488 
    33    5    2.0014    0.0000    0.2995   0.06655  9.2407E-04  2.8974E-03  3.0412E-03   72.311 
    34    5    2.0014    0.0000    0.3660   0.06655  6.8387E-04  2.1153E-03  2.2231E-03   72.084 
    35    5    2.0014    0.0000    0.4326   0.06655  2.9228E-04  8.9036E-04  9.3711E-04   71.827 
    36    6    2.5017    0.0000    0.0333   0.06655  2.0630E-03  3.3328E-04  2.0898E-03    9.177 
    37    6    2.5017    0.0000    0.0998   0.06655  4.8873E-03  9.7575E-04  4.9838E-03   11.291 
    38    6    2.5017    0.0000    0.1664   0.06655  6.6540E-03  1.6884E-03  6.8649E-03   14.238 
    39    6    2.5017    0.0000    0.2329   0.06655  7.2690E-03  2.3073E-03  7.6264E-03   17.610 
    40    6    2.5017    0.0000    0.2995   0.06655  6.6540E-03  1.6884E-03  6.8649E-03   14.238 
    41    6    2.5017    0.0000    0.3660   0.06655  4.8873E-03  9.7575E-04  4.9838E-03   11.291 
    42    6    2.5017    0.0000    0.4326   0.06655  2.0630E-03  3.3328E-04  2.0898E-03    9.177 
    43    7    3.0020    0.0000    0.0333   0.06655  8.9358E-04  1.1581E-03  1.4628E-03   52.347 
    44    7    3.0020    0.0000    0.0998   0.06655  2.1097E-03  2.7751E-03  3.4860E-03   52.756 
    45    7    3.0020    0.0000    0.1664   0.06655  2.8665E-03  3.8464E-03  4.7971E-03   53.305 
    46    7    3.0020    0.0000    0.2329   0.06655  3.1294E-03  4.2945E-03  5.3138E-03   53.919 
    47    7    3.0020    0.0000    0.2995   0.06655  2.8665E-03  3.8464E-03  4.7971E-03   53.305 
    48    7    3.0020    0.0000    0.3660   0.06655  2.1097E-03  2.7751E-03  3.4860E-03   52.756 
    49    7    3.0020    0.0000    0.4326   0.06655  8.9358E-04  1.1581E-03  1.4628E-03   52.347 
    50    8    3.5024    0.0000    0.0333   0.06655  1.3955E-03  6.8019E-05  1.3971E-03    2.791 
    51    8    3.5024    0.0000    0.0998   0.06655  3.3051E-03  2.9148E-04  3.3180E-03    5.040 
    52    8    3.5024    0.0000    0.1664   0.06655  4.4993E-03  6.4649E-04  4.5455E-03    8.177 
    53    8    3.5024    0.0000    0.2329   0.06655  4.9150E-03  1.0258E-03  5.0209E-03   11.789 
    54    8    3.5024    0.0000    0.2995   0.06655  4.4993E-03  6.4649E-04  4.5455E-03    8.177 
    55    8    3.5024    0.0000    0.3660   0.06655  3.3051E-03  2.9148E-04  3.3180E-03    5.040 
    56    8    3.5024    0.0000    0.4326   0.06655  1.3955E-03  6.8019E-05  1.3971E-03    2.791 






                               ---------- POWER BUDGET ---------
                               INPUT POWER   = 1.9218E-002 Watts
                               RADIATED POWER= 1.9218E-002 Watts
                               STRUCTURE LOSS= 0.0000E+000 Watts
                               NETWORK LOSS  = 0.0000E+000 Watts
                               EFFICIENCY    =  100.00 Percent


                         ----- RADIATION PATTERNS -----
 ---- ANGLES -----     ----- POWER GAINS -----       ---- POLARIZATION ----   ---- E(THETA) ----    ----- E(PHI) ------
  THETA      PHI       VERTC   HORIZ   TOTAL       AXIAL      TILT  SENSE   MAGNITUDE    PHASE    MAGNITUDE     PHASE
 DEGREES   DEGREES        DB       DB       DB       RATIO   DEGREES            VOLTS/M   DEGREES     VOLTS/M   DEGREES
   90.00      0.00    -20.68  -999.99   -20.68      0.0000      0.00 LINEAR  9.9293E-02     96.05  0.0000E+00      0.00
   90.00      1.00    -20.63  -999.99   -20.63      0.0000      0.00 LINEAR  9.9826E-02     96.85  0.0000E+00      0.00
   90.00      2.00    -20.48  -999.99   -20.48      0.0000      0.00 LINEAR  1.0156E-01     99.19  0.0000E+00      0.00
   90.00      3.00    -20.20  -999.99   -20.20      0.0000      0.00 LINEAR  1.0489E-01    102.88  0.0000E+00      0.00
   90.00      4.00    -19.76  -999.99   -19.76      0.0000      0.00 LINEAR  1.1038E-01    107.58  0.0000E+00      0.00
   90.00      5.00    -19.13  -999.99   -19.13      0.0000      0.00 LINEAR  1.1863E-01    112.84  0.0000E+00      0.00
   90.00      6.00    -18.33  -999.99   -18.33      0.0000      0.00 LINEAR  1.3017E-01    118.13  0.0000E+00      0.00
   90.00      7.00    -17.37  -999.99   -17.37      0.0000      0.00 LINEAR  1.4536E-01    123.02  0.0000E+00      0.00
   90.00      8.00    -16.30  -999.99   -16.30      0.0000      0.00 LINEAR  1.6434E-01    127.21  0.0000E+00      0.00
   90.00      9.00    -15.17  -999.99   -15.17      0.0000      0.00 LINEAR  1.8708E-01    130.56  0.0000E+00      0.00
   90.00     10.00    -14.03  -999.99   -14.03      0.0000      0.00 LINEAR  2.1347E-01    133.06  0.0000E+00      0.00
   90.00     11.00    -12.89  -999.99   -12.89      0.0000      0.00 LINEAR  2.4331E-01    134.76  0.0000E+00      0.00
   90.00     12.00    -11.79  -999.99   -11.79      0.0000      0.00 LINEAR  2.7639E-01    135.75  0.0000E+00      0.00
   90.00     13.00    -10.72  -999.99   -10.72      0.0000      0.00 LINEAR  3.1245E-01    136.10  0.0000E+00      0.00
   90.00     14.00     -9.70  -999.99    -9.70      0.0000      0.00 LINEAR  3.5124E-01    135.90  0.0000E+00      0.00
   90.00     15.00     -8.74  -999.99    -8.74      0.0000      0.00 LINEAR  3.9248E-01    135.22  0.0000E+00      0.00
   90.00     16.00     -7.83  -999.99    -7.83      0.0000      0.00 LINEAR  4.3586E-01    134.12  0.0000E+00      0.00
   90.00     17.00     -6.97  -999.99    -6.97      0.0000      0.00 LINEAR  4.8103E-01    132.64  0.0000E+00      0.00
   90.00     18.00     -6.17  -999.99    -6.17      0.0000      0.00 LINEAR  5.2762E-01    130.82  0.0000E+00      0.00
   90.00     19.00     -5.42  -999.99    -5.42      0.0000      0.00 LINEAR  5.7520E-01    128.69  0.0000E+00      0.00
   90.00     20.00     -4.72  -999.99    -4.72      0.0000      0.00 LINEAR  6.2331E-01    126.27  0.0000E+00      0.00
   90.00     21.00     -4.08  -999.99    -4.08      0.0000      0.00 LINEAR  6.7143E-01    123.59  0.0000E+00      0.00
   90.00     22.00     -3.48  -999.99    -3.48      0.0000      0.00 LINEAR  7.1901E-01    120.67  0.0000E+00      0.00
   90.00     23.00     -2.94  -999.99    -2.94      0.0000      0.00 LINEAR  7.6545E-01    117.51  0.0000E+00      0.00
   90.00     24.00     -2.45  -999.99    -2.45      0.0000      0.00 LINEAR  8.1008E-01    114.12  0.0000E+00      0.00
   90.00     25.00     -2.00  -999.99    -2.00      0.0000      0.00 LINEAR  8.5224E-01    110.53  0.0000E+00      0.00
   90.00     26.00     -1.62  -999.99    -1.62      0.0000      0.00 LINEAR  8.9121E-01    106.74  0.0000E+00      0.00
   90.00     27.00     -1.28  -999.99    -1.28      0.0000      0.00 LINEAR  9.2625E-01    102.75  0.0000E+00      0.00
   90.00     28.00     -1.00  -999.99    -1.00      0.0000      0.00 LINEAR  9.5663E-01     98.57  0.0000E+00      0.00
   90.00     29.00     -0.78  -999.99    -0.78      0.0000      0.00 LINEAR  9.8159E-01     94.21  0.0000E+00      0.00
   90.00     30.00     -0.61  -999.99    -0.61      0.0000      0.00 LINEAR  1.0004E+00     89.68  0.0000E+00      0.00
   90.00     31.00     -0.51  -999.99    -0.51      0.0000      0.00 LINEAR  1.0125E+00     84.98  0.0000E+00      0.00
   90.00     32.00     -0.47  -999.99    -0.47      0.0000      0.00 LINEAR  1.0171E+00     80.12  0.0000E+00      0.00
   90.00     33.00     -0.50  -999.99    -0.50      0.0000      0.00 LINEAR  1.0138E+00     75.10  0.0000E+00      0.00
   90.00     34.00     -0.60  -999.99    -0.60      0.0000      0.00 LINEAR  1.0022E+00     69.94  0.0000E+00      0.00
   90.00     35.00     -0.77  -999.99    -0.77      0.0000      0.00 LINEAR  9.8185E-01     64.64  0.0000E+00      0.00
   90.00     36.00     -1.04  -999.99    -1.04      0.0000      0.00 LINEAR  9.5278E-01     59.21  0.0000E+00      0.00
   90.00     37.00     -1.39  -999.99    -1.39      0.0000      0.00 LINEAR  9.1499E-01     53.67  0.0000E+00      0.00
   90.00     38.00     -1.84  -999.99    -1.84      0.0000      0.00 LINEAR  8.6875E-01     48.03  0.0000E+00      0.00
   90.00     39.00     -2.40  -999.99    -2.40      0.0000      0.00 LINEAR  8.1454E-01     42.32  0.0000E+00      0.00
   90.00     40.00     -3.08  -999.99    -3.08      0.0000      0.00 LINEAR  7.5308E-01     36.56  0.0000E+00      0.00
   90.00     41.00     -3.90  -999.99    -3.90      0.0000      0.00 LINEAR  6.8535E-01     30.79  0.0000E+00      0.00
   90.00     42.00     -4.87  -999.99    -4.87      0.0000      0.00 LINEAR  6.1258E-01     25.08  0.0000E+00      0.00
   90.00     43.00     -6.03  -999.99    -6.03      0.0000      0.00 LINEAR  5.3628E-01     19.52  0.0000E+00      0.00
   90.00     44.00     -7.39  -999.99    -7.39      0.0000      0.00 LINEAR  4.5822E-01     14.24  0.0000E+00      0.00
   90.00     45.00     -9.01  -999.99    -9.01      0.0000      0.00 LINEAR  3.8044E-01      9.51  0.0000E+00      0.00
   90.00     46.00    -10.92  -999.99   -10.92      0.0000      0.00 LINEAR  3.0533E-01      5.73  0.0000E+00      0.00
   90.00     47.00    -13.17  -999.99   -13.17      0.0000      0.00 LINEAR  2.3571E-01      3.68  0.0000E+00      0.00
   90.00     48.00    -15.75  -999.99   -15.75      0.0000      0.00 LINEAR  1.7515E-01      4.78  0.0000E+00      0.00
   90.00     49.00    -18.44  -999.99   -18.44      0.0000      0.00 LINEAR  1.2848E-01     11.25  0.0000E+00      0.00
   90.00     50.00    -20.49  -999.99   -20.49      0.0000      0.00 LINEAR  1.0142E-01     24.09  0.0000E+00      0.00
   90.00     51.00    -21.08  -999.99   -21.08      0.0000      0.00 LINEAR  9.4819E-02     37.31  0.0000E+00      0.00
   90.00     52.00    -20.67  -999.99   -20.67      0.0000      0.00 LINEAR  9.9426E-02     42.29  0.0000E+00      0.00
   90.00     53.00    -20.17  -999.99   -20.17      0.0000      0.00 LINEAR  1.0523E-01     37.23  0.0000E+00      0.00
   90.00     54.00    -19.82  -999.99   -19.82      0.0000      0.00 LINEAR  1.0958E-01     23.04  0.0000E+00      0.00
   90.00     55.00    -19.20  -999.99   -19.20      0.0000      0.00 LINEAR  1.1769E-01      0.79  0.0000E+00      0.00
   90.00     56.00    -17.69  -999.99   -17.69      0.0000      0.00 LINEAR  1.4004E-01    -25.65  0.0000E+00      0.00
   90.00     57.00    -15.30  -999.99   -15.30      0.0000      0.00 LINEAR  1.8432E-01    -50.10  0.0000E+00      0.00
   90.00     58.00    -12.63  -999.99   -12.63      0.0000      0.00 LINEAR  2.5064E-01    -69.86  0.0000E+00      0.00
   90.00     59.00    -10.11  -999.99   -10.11      0.0000      0.00 LINEAR  3.3526E-01    -85.75  0.0000E+00      0.00
   90.00     60.00     -7.87  -999.99    -7.87      0.0000      0.00 LINEAR  4.3388E-01    -99.11  0.0000E+00      0.00
   90.00     61.00     -5.93  -999.99    -5.93      0.0000      0.00 LINEAR  5.4222E-01   -110.91  0.0000E+00      0.00
   90.00     62.00     -4.28  -999.99    -4.28      0.0000      0.00 LINEAR  6.5588E-01   -121.70  0.0000E+00      0.00
   90.00     63.00     -2.88  -999.99    -2.88      0.0000      0.00 LINEAR  7.7022E-01   -131.83  0.0000E+00      0.00
   90.00     64.00     -1.72  -999.99    -1.72      0.0000      0.00 LINEAR  8.8038E-01   -141.46  0.0000E+00      0.00
   90.00     65.00     -0.78  -999.99    -0.78      0.0000      0.00 LINEAR  9.8134E-01   -150.70  0.0000E+00      0.00
   90.00     66.00     -0.04  -999.99    -0.04      0.0000      0.00 LINEAR  1.0681E+00   -159.60  0.0000E+00      0.00
   90.00     67.00      0.49  -999.99     0.49      0.0000      0.00 LINEAR  1.1360E+00   -168.14  0.0000E+00      0.00
   90.00     68.00      0.83  -999.99     0.83      0.0000      0.00 LINEAR  1.1806E+00   -176.27  0.0000E+00      0.00
   90.00     69.00      0.96  -999.99     0.96      0.0000      0.00 LINEAR  1.1983E+00    176.09  0.0000E+00      0.00
   90.00     70.00      0.87  -999.99     0.87      0.0000      0.00 LINEAR  1.1870E+00    169.12  0.0000E+00      0.00
   90.00     71.00      0.57  -999.99     0.57      0.0000      0.00 LINEAR  1.1458E+00    163.09  0.0000E+00      0.00
   90.00     72.00      0.03  -999.99     0.03      0.0000      0.00 LINEAR  1.0769E+00    158.45  0.0000E+00      0.00
   90.00     73.00     -0.73  -999.99    -0.73      0.0000      0.00 LINEAR  9.8661E-01    155.91  0.0000E+00      0.00
   90.00     74.00     -1.64  -999.99    -1.64      0.0000      0.00 LINEAR  8.8872E-01    156.57  0.0000E+00      0.00
   90.00     75.00     -2.46  -999.99    -2.46      0.0000      0.00 LINEAR  8.0904E-01    161.67  0.0000E+00      0.00
   90.00     76.00     -2.70  -999.99    -2.70      0.0000      0.00 LINEAR  7.8694E-01    171.15  0.0000E+00      0.00
   90.00     77.00     -1.94  -999.99    -1.94      0.0000      0.00 LINEAR  8.5828E-01   -178.33  0.0000E+00      0.00
   90.00     78.00     -0.39  -999.99    -0.39      0.0000      0.00 LINEAR  1.0268E+00   -171.19  0.0000E+00      0.00
   90.00     79.00      1.45  -999.99     1.45      0.0000      0.00 LINEAR  1.2682E+00   -168.76  0.0000E+00      0.00
   90.00     80.00      3.22  -999.99     3.22      0.0000      0.00 LINEAR  1.5549E+00   -170.06  0.0000E+00      0.00
   90.00     81.00      4.80  -999.99     4.80      0.0000      0.00 LINEAR  1.8654E+00   -173.86  0.0000E+00      0.00
   90.00     82.00      6.17  -999.99     6.17      0.0000      0.00 LINEAR  2.1833E+00   -179.28  0.0000E+00      0.00
   90.00     83.00      7.33  -999.99     7.33      0.0000      0.00 LINEAR  2.4956E+00    174.24  0.0000E+00      0.00
   90.00     84.00      8.30  -999.99     8.30      0.0000      0.00 LINEAR  2.7910E+00    167.05  0.0000E+00      0.00
   90.00     85.00      9.10  -999.99     9.10      0.0000      0.00 LINEAR  3.0597E+00    159.40  0.0000E+00      0.00
   90.00     86.00      9.74  -999.99     9.74      0.0000      0.00 LINEAR  3.2935E+00    151.44  0.0000E+00      0.00
   90.00     87.00     10.23  -999.99    10.23      0.0000      0.00 LINEAR  3.4850E+00    143.27  0.0000E+00      0.00
   90.00     88.00     10.58  -999.99    10.58      0.0000      0.00 LINEAR  3.6289E+00    135.00  0.0000E+00      0.00
   90.00     89.00     10.80  -999.99    10.80      0.0000      0.00 LINEAR  3.7209E+00    126.69  0.0000E+00      0.00
   90.00     90.00     10.89  -999.99    10.89      0.0000      0.00 LINEAR  3.7588E+00    118.40  0.0000E+00      0.00
   90.00     91.00     10.85  -999.99    10.85      0.0000      0.00 LINEAR  3.7420E+00    110.20  0.0000E+00      0.00
   90.00     92.00     10.68  -999.99    10.68      0.0000      0.00 LINEAR  3.6717E+00    102.14  0.0000E+00      0.00
   90.00     93.00     10.39  -999.99    10.39      0.0000      0.00 LINEAR  3.5510E+00     94.30  0.0000E+00      0.00
   90.00     94.00      9.97  -999.99     9.97      0.0000      0.00 LINEAR  3.3845E+00     86.76  0.0000E+00      0.00
   90.00     95.00      9.43  -999.99     9.43      0.0000      0.00 LINEAR  3.1786E+00     79.62  0.0000E+00      0.00
   90.00     96.00      8.76  -999.99     8.76      0.0000      0.00 LINEAR  2.9414E+00     73.00  0.0000E+00      0.00
   90.00     97.00      7.95  -999.99     7.95      0.0000      0.00 LINEAR  2.6823E+00     67.08  0.0000E+00      0.00
   90.00     98.00      7.03  -999.99     7.03      0.0000      0.00 LINEAR  2.4122E+00     62.05  0.0000E+00      0.00
   90.00     99.00      6.01  -999.99     6.01      0.0000      0.00 LINEAR  2.1434E+00     58.20  0.0000E+00      0.00
   90.00    100.00      4.91  -999.99     4.91      0.0000      0.00 LINEAR  1.8897E+00     55.82  0.0000E+00      0.00
   90.00    101.00      3.82  -999.99     3.82      0.0000      0.00 LINEAR  1.6659E+00     55.22  0.0000E+00      0.00
   90.00    102.00      2.83  -999.99     2.83      0.0000      0.00 LINEAR  1.4870E+00     56.50  0.0000E+00      0.00
   90.00    103.00      2.08  -999.99     2.08      0.0000      0.00 LINEAR  1.3642E+00     59.34  0.0000E+00      0.00
   90.00    104.00      1.67  -999.99     1.67      0.0000      0.00 LINEAR  1.3008E+00     62.85  0.0000E+00      0.00
   90.00    105.00      1.59  -999.99     1.59      0.0000      0.00 LINEAR  1.2886E+00     65.87  0.0000E+00      0.00
   90.00    106.00      1.73  -999.99     1.73      0.0000      0.00 LINEAR  1.3107E+00     67.53  0.0000E+00      0.00
   90.00    107.00      1.98  -999.99     1.98      0.0000      0.00 LINEAR  1.3482E+00     67.53  0.0000E+00      0.00
   90.00    108.00      2.21  -999.99     2.21      0.0000      0.00 LINEAR  1.3849E+00     66.00  0.0000E+00      0.00
   90.00    109.00      2.37  -999.99     2.37      0.0000      0.00 LINEAR  1.4095E+00     63.25  0.0000E+00      0.00
   90.00    110.00      2.40  -999.99     2.40      0.0000      0.00 LINEAR  1.4152E+00     59.61  0.0000E+00      0.00
   90.00    111.00      2.30  -999.99     2.30      0.0000      0.00 LINEAR  1.3985E+00     55.36  0.0000E+00      0.00
   90.00    112.00      2.05  -999.99     2.05      0.0000      0.00 LINEAR  1.3588E+00     50.73  0.0000E+00      0.00
   90.00    113.00      1.64  -999.99     1.64      0.0000      0.00 LINEAR  1.2971E+00     45.91  0.0000E+00      0.00
   90.00    114.00      1.08  -999.99     1.08      0.0000      0.00 LINEAR  1.2158E+00     41.07  0.0000E+00      0.00
   90.00    115.00      0.35  -999.99     0.35      0.0000      0.00 LINEAR  1.1181E+00     36.36  0.0000E+00      0.00
   90.00    116.00     -0.55  -999.99    -0.55      0.0000      0.00 LINEAR  1.0077E+00     31.94  0.0000E+00      0.00
   90.00    117.00     -1.64  -999.99    -1.64      0.0000      0.00 LINEAR  8.8883E-01     27.99  0.0000E+00      0.00
   90.00    118.00     -2.94  -999.99    -2.94      0.0000      0.00 LINEAR  7.6540E-01     24.73  0.0000E+00      0.00
   90.00    119.00     -4.47  -999.99    -4.47      0.0000      0.00 LINEAR  6.4147E-01     22.51  0.0000E+00      0.00
   90.00    120.00     -6.28  -999.99    -6.28      0.0000      0.00 LINEAR  5.2102E-01     21.85  0.0000E+00      0.00
   90.00    121.00     -8.39  -999.99    -8.39      0.0000      0.00 LINEAR  4.0836E-01     23.71  0.0000E+00      0.00
   90.00    122.00    -10.81  -999.99   -10.81      0.0000      0.00 LINEAR  3.0915E-01     29.89  0.0000E+00      0.00
   90.00    123.00    -13.27  -999.99   -13.27      0.0000      0.00 LINEAR  2.3301E-01     43.44  0.0000E+00      0.00
   90.00    124.00    -14.77  -999.99   -14.77      0.0000      0.00 LINEAR  1.9598E-01     66.21  0.0000E+00      0.00
   90.00    125.00    -14.24  -999.99   -14.24      0.0000      0.00 LINEAR  2.0828E-01     90.48  0.0000E+00      0.00
   90.00    126.00    -12.47  -999.99   -12.47      0.0000      0.00 LINEAR  2.5539E-01    106.72  0.0000E+00      0.00
   90.00    127.00    -10.58  -999.99   -10.58      0.0000      0.00 LINEAR  3.1760E-01    115.54  0.0000E+00      0.00
   90.00    128.00     -8.91  -999.99    -8.91      0.0000      0.00 LINEAR  3.8504E-01    120.07  0.0000E+00      0.00
   90.00    129.00     -7.47  -999.99    -7.47      0.0000      0.00 LINEAR  4.5415E-01    122.22  0.0000E+00      0.00
   90.00    130.00     -6.23  -999.99    -6.23      0.0000      0.00 LINEAR  5.2377E-01    122.94  0.0000E+00      0.00
   90.00    131.00     -5.15  -999.99    -5.15      0.0000      0.00 LINEAR  5.9355E-01    122.69  0.0000E+00      0.00
   90.00    132.00     -4.18  -999.99    -4.18      0.0000      0.00 LINEAR  6.6326E-01    121.73  0.0000E+00      0.00
   90.00    133.00     -3.32  -999.99    -3.32      0.0000      0.00 LINEAR  7.3248E-01    120.20  0.0000E+00      0.00
   90.00    134.00     -2.55  -999.99    -2.55      0.0000      0.00 LINEAR  8.0058E-01    118.18  0.0000E+00      0.00
   90.00    135.00     -1.86  -999.99    -1.86      0.0000      0.00 LINEAR  8.6675E-01    115.74  0.0000E+00      0.00
   90.00    136.00     -1.25  -999.99    -1.25      0.0000      0.00 LINEAR  9.2999E-01    112.95  0.0000E+00      0.00
   90.00    137.00     -0.71  -999.99    -0.71      0.0000      0.00 LINEAR  9.8928E-01    109.84  0.0000E+00      0.00
   90.00    138.00     -0.25  -999.99    -0.25      0.0000      0.00 LINEAR  1.0436E+00    106.48  0.0000E+00      0.00
   90.00    139.00      0.15  -999.99     0.15      0.0000      0.00 LINEAR  1.0919E+00    102.90  0.0000E+00      0.00
   90.00    140.00      0.47  -999.99     0.47      0.0000      0.00 LINEAR  1.1335E+00     99.14  0.0000E+00      0.00
   90.00    141.00      0.73  -999.99     0.73      0.0000      0.00 LINEAR  1.1676E+00     95.25  0.0000E+00      0.00
   90.00    142.00      0.92  -999.99     0.92      0.0000      0.00 LINEAR  1.1938E+00     91.26  0.0000E+00      0.00
   90.00    143.00      1.05  -999.99     1.05      0.0000      0.00 LINEAR  1.2117E+00     87.19  0.0000E+00      0.00
   90.00    144.00      1.12  -999.99     1.12      0.0000      0.00 LINEAR  1.2212E+00     83.08  0.0000E+00      0.00
   90.00    145.00      1.13  -999.99     1.13      0.0000      0.00 LINEAR  1.2224E+00     78.96  0.0000E+00      0.00
   90.00    146.00      1.08  -999.99     1.08      0.0000      0.00 LINEAR  1.2154E+00     74.83  0.0000E+00      0.00
   90.00    147.00      0.97  -999.99     0.97      0.0000      0.00 LINEAR  1.2006E+00     70.73  0.0000E+00      0.00
   90.00    148.00      0.81  -999.99     0.81      0.0000      0.00 LINEAR  1.1785E+00     66.68  0.0000E+00      0.00
   90.00    149.00      0.60  -999.99     0.60      0.0000      0.00 LINEAR  1.1496E+00     62.68  0.0000E+00      0.00
   90.00    150.00      0.33  -999.99     0.33      0.0000      0.00 LINEAR  1.1146E+00     58.76  0.0000E+00      0.00
   90.00    151.00      0.01  -999.99     0.01      0.0000      0.00 LINEAR  1.0743E+00     54.94  0.0000E+00      0.00
   90.00    152.00     -0.37  -999.99    -0.37      0.0000      0.00 LINEAR  1.0292E+00     51.22  0.0000E+00      0.00
   90.00    153.00     -0.79  -999.99    -0.79      0.0000      0.00 LINEAR  9.8023E-01     47.62  0.0000E+00      0.00
   90.00    154.00     -1.26  -999.99    -1.26      0.0000      0.00 LINEAR  9.2809E-01     44.16  0.0000E+00      0.00
   90.00    155.00     -1.79  -999.99    -1.79      0.0000      0.00 LINEAR  8.7352E-01     40.84  0.0000E+00      0.00
   90.00    156.00     -2.37  -999.99    -2.37      0.0000      0.00 LINEAR  8.1723E-01     37.70  0.0000E+00      0.00
   90.00    157.00     -3.00  -999.99    -3.00      0.0000      0.00 LINEAR  7.5990E-01     34.73  0.0000E+00      0.00
   90.00    158.00     -3.69  -999.99    -3.69      0.0000      0.00 LINEAR  7.0215E-01     31.97  0.0000E+00      0.00
   90.00    159.00     -4.43  -999.99    -4.43      0.0000      0.00 LINEAR  6.4459E-01     29.43  0.0000E+00      0.00
   90.00    160.00     -5.23  -999.99    -5.23      0.0000      0.00 LINEAR  5.8774E-01     27.15  0.0000E+00      0.00
   90.00    161.00     -6.10  -999.99    -6.10      0.0000      0.00 LINEAR  5.3209E-01     25.14  0.0000E+00      0.00
   90.00    162.00     -7.03  -999.99    -7.03      0.0000      0.00 LINEAR  4.7810E-01     23.47  0.0000E+00      0.00
   90.00    163.00     -8.02  -999.99    -8.02      0.0000      0.00 LINEAR  4.2615E-01     22.17  0.0000E+00      0.00
   90.00    164.00     -9.10  -999.99    -9.10      0.0000      0.00 LINEAR  3.7661E-01     21.31  0.0000E+00      0.00
   90.00    165.00    -10.25  -999.99   -10.25      0.0000      0.00 LINEAR  3.2983E-01     21.00  0.0000E+00      0.00
   90.00    166.00    -11.49  -999.99   -11.49      0.0000      0.00 LINEAR  2.8611E-01     21.35  0.0000E+00      0.00
   90.00    167.00    -12.80  -999.99   -12.80      0.0000      0.00 LINEAR  2.4580E-01     22.52  0.0000E+00      0.00
   90.00    168.00    -14.20  -999.99   -14.20      0.0000      0.00 LINEAR  2.0924E-01     24.76  0.0000E+00      0.00
   90.00    169.00    -15.66  -999.99   -15.66      0.0000      0.00 LINEAR  1.7685E-01     28.35  0.0000E+00      0.00
   90.00    170.00    -17.14  -999.99   -17.14      0.0000      0.00 LINEAR  1.4915E-01     33.64  0.0000E+00      0.00
   90.00    171.00    -18.56  -999.99   -18.56      0.0000      0.00 LINEAR  1.2671E-01     40.94  0.0000E+00      0.00
   90.00    172.00    -19.78  -999.99   -19.78      0.0000      0.00 LINEAR  1.1012E-01     50.30  0.0000E+00      0.00
   90.00    173.00    -20.65  -999.99   -20.65      0.0000      0.00 LINEAR  9.9628E-02     61.14  0.0000E+00      0.00
   90.00    174.00    -21.08  -999.99   -21.08      0.0000      0.00 LINEAR  9.4753E-02     72.23  0.0000E+00      0.00
   90.00    175.00    -21.14  -999.99   -21.14      0.0000      0.00 LINEAR  9.4192E-02     82.18  0.0000E+00      0.00
   90.00    176.00    -20.95  -999.99   -20.95      0.0000      0.00 LINEAR  9.6223E-02     90.16  0.0000E+00      0.00
   90.00    177.00    -20.68  -999.99   -20.68      0.0000      0.00 LINEAR  9.9265E-02     96.01  0.0000E+00      0.00
   90.00    178.00    -20.43  -999.99   -20.43      0.0000      0.00 LINEAR  1.0215E-01     99.91  0.0000E+00      0.00
   90.00    179.00    -20.26  -999.99   -20.26      0.0000      0.00 LINEAR  1.0415E-01    102.12  0.0000E+00      0.00
   90.00    180.00    -20.20  -999.99   -20.20      0.0000      0.00 LINEAR  1.0486E-01    102.84  0.0000E+00      0.00
   90.00    181.00    -20.26  -999.99   -20.26      0.0000      0.00 LINEAR  1.0415E-01    102.12  0.0000E+00      0.00
   90.00    182.00    -20.43  -999.99   -20.43      0.0000      0.00 LINEAR  1.0215E-01     99.91  0.0000E+00      0.00
   90.00    183.00    -20.68  -999.99   -20.68      0.0000      0.00 LINEAR  9.9265E-02     96.01  0.0000E+00      0.00
   90.00    184.00    -20.95  -999.99   -20.95      0.0000      0.00 LINEAR  9.6223E-02     90.16  0.0000E+00      0.00
   90.00    185.00    -21.14  -999.99   -21.14      0.0000      0.00 LINEAR  9.4192E-02     82.18  0.0000E+00      0.00
   90.00    186.00    -21.08  -999.99   -21.08      0.0000      0.00 LINEAR  9.4753E-02     72.23  0.0000E+00      0.00
   90.00    187.00    -20.65  -999.99   -20.65      0.0000      0.00 LINEAR  9.9628E-02     61.14  0.0000E+00      0.00
   90.00    188.00    -19.78  -999.99   -19.78      0.0000      0.00 LINEAR  1.1012E-01     50.30  0.0000E+00      0.00
   90.00    189.00    -18.56  -999.99   -18.56      0.0000      0.00 LINEAR  1.2671E-01     40.94  0.0000E+00      0.00
   90.00    190.00    -17.14  -999.99   -17.14      0.0000      0.00 LINEAR  1.4915E-01     33.64  0.0000E+00      0.00
   90.00    191.00    -15.66  -999.99   -15.66      0.0000      0.00 LINEAR  1.7685E-01     28.35  0.0000E+00      0.00
   90.00    192.00    -14.20  -999.99   -14.20      0.0000      0.00 LINEAR  2.0924E-01     24.76  0.0000E+00      0.00
   90.00    193.00    -12.80  -999.99   -12.80      0.0000      0.00 LINEAR  2.4580E-01     22.52  0.0000E+00      0.00
   90.00    194.00    -11.49  -999.99   -11.49      0.0000      0.00 LINEAR  2.8611E-01     21.35  0.0000E+00      0.00
   90.00    195.00    -10.25  -999.99   -10.25      0.0000      0.00 LINEAR  3.2983E-01     21.00  0.0000E+00      0.00
   90.00    196.00     -9.10  -999.99    -9.10      0.0000      0.00 LINEAR  3.7661E-01     21.31  0.0000E+00      0.00
   90.00    197.00     -8.02  -999.99    -8.02      0.0000      0.00 LINEAR  4.2615E-01     22.17  0.0000E+00      0.00
   90.00    198.00     -7.03  -999.99    -7.03      0.0000      0.00 LINEAR  4.7810E-01     23.47  0.0000E+00      0.00
   90.00    199.00     -6.10  -999.99    -6.10      0.0000      0.00 LINEAR  5.3209E-01     25.14  0.0000E+00      0.00
   90.00    200.00     -5.23  -999.99    -5.23      0.0000      0.00 LINEAR  5.8774E-01     27.15  0.0000E+00      0.00
   90.00    201.00     -4.43  -999.99    -4.43      0.0000      0.00 LINEAR  6.4459E-01     29.43  0.0000E+00      0.00
   90.00    202.00     -3.69  -999.99    -3.69      0.0000      0.00 LINEAR  7.0215E-01     31.97  0.0000E+00      0.00
   90.00    203.00     -3.00  -999.99    -3.00      0.0000      0.00 LINEAR  7.5990E-01     34.73  0.0000E+00      0.00
   90.00    204.00     -2.37  -999.99    -2.37      0.0000      0.00 LINEAR  8.1723E-01     37.70  0.0000E+00      0.00
   90.00    205.00     -1.79  -999.99    -1.79      0.0000      0.00 LINEAR  8.7352E-01     40.84  0.0000E+00      0.00
   90.00    206.00     -1.26  -999.99    -1.26      0.0000      0.00 LINEAR  9.2809E-01     44.16  0.0000E+00      0.00
   90.00    207.00     -0.79  -999.99    -0.79      0.0000      0.00 LINEAR  9.8023E-01     47.62  0.0000E+00      0.00
   90.00    208.00     -0.37  -999.99    -0.37      0.0000      0.00 LINEAR  1.0292E+00     51.22  0.0000E+00      0.00
   90.00    209.00      0.01  -999.99     0.01      0.0000      0.00 LINEAR  1.0743E+00     54.94  0.0000E+00      0.00
   90.00    210.00      0.33  -999.99     0.33      0.0000      0.00 LINEAR  1.1146E+00     58.76  0.0000E+00      0.00
   90.00    211.00      0.60  -999.99     0.60      0.0000      0.00 LINEAR  1.1496E+00     62.68  0.0000E+00      0.00
   90.00    212.00      0.81  -999.99     0.81      0.0000      0.00 LINEAR  1.1785E+00     66.68  0.0000E+00      0.00
   90.00    213.00      0.97  -999.99     0.97      0.0000      0.00 LINEAR  1.2006E+00     70.73  0.0000E+00      0.00
   90.00    214.00      1.08  -999.99     1.08      0.0000      0.00 LINEAR  1.2154E+00     74.83  0.0000E+00      0.00
   90.00    215.00      1.13  -999.99     1.13      0.0000      0.00 LINEAR  1.2224E+00     78.96  0.0000E+00      0.00
   90.00    216.00      1.12  -999.99     1.12      0.0000      0.00 LINEAR  1.2212E+00     83.08  0.0000E+00      0.00
   90.00    217.00      1.05  -999.99     1.05      0.0000      0.00 LINEAR  1.2117E+00     87.19  0.0000E+00      0.00
   90.00    218.00      0.92  -999.99     0.92      0.0000      0.00 LINEAR  1.1938E+00     91.26  0.0000E+00      0.00
   90.00    219.00      0.73  -999.99     0.73      0.0000      0.00 LINEAR  1.1676E+00     95.25  0.0000E+00      0.00
   90.00    220.00      0.47  -999.99     0.47      0.0000      0.00 LINEAR  1.1335E+00     99.14  0.0000E+00      0.00
   90.00    221.00      0.15  -999.99     0.15      0.0000      0.00 LINEAR  1.0919E+00    102.90  0.0000E+00      0.00
   90.00    222.00     -0.25  -999.99    -0.25      0.0000      0.00 LINEAR  1.0436E+00    106.48  0.0000E+00      0.00
   90.00    223.00     -0.71  -999.99    -0.71      0.0000      0.00 LINEAR  9.8928E-01    109.84  0.0000E+00      0.00
   90.00    224.00     -1.25  -999.99    -1.25      0.0000      0.00 LINEAR  9.2999E-01    112.95  0.0000E+00      0.00
   90.00    225.00     -1.86  -999.99    -1.86      0.0000      0.00 LINEAR  8.6675E-01    115.74  0.0000E+00      0.00
   90.00    226.00     -2.55  -999.99    -2.55      0.0000      0.00 LINEAR  8.0058E-01    118.18  0.0000E+00      0.00
   90.00    227.00     -3.32  -999.99    -3.32      0.0000      0.00 LINEAR  7.3248E-01    120.20  0.0000E+00      0.00
   90.00    228.00     -4.18  -999.99    -4.18      0.0000      0.00 LINEAR  6.6326E-01    121.73  0.0000E+00      0.00
   90.00    229.00     -5.15  -999.99    -5.15      0.0000      0.00 LINEAR  5.9355E-01    122.69  0.0000E+00      0.00
   90.00    230.00     -6.23  -999.99    -6.23      0.0000      0.00 LINEAR  5.2377E-01    122.94  0.0000E+00      0.00
   90.00    231.00     -7.47  -999.99    -7.47      0.0000      0.00 LINEAR  4.5415E-01    122.22  0.0000E+00      0.00
   90.00    232.00     -8.91  -999.99    -8.91      0.0000      0.00 LINEAR  3.8504E-01    120.07  0.0000E+00      0.00
   90.00    233.00    -10.58  -999.99   -10.58      0.0000      0.00 LINEAR  3.1760E-01    115.54  0.0000E+00      0.00
   90.00    234.00    -12.47  -999.99   -12.47      0.0000      0.00 LINEAR  2.5539E-01    106.72  0.0000E+00      0.00
   90.00    235.00    -14.24  -999.99   -14.24      0.0000      0.00 LINEAR  2.0828E-01     90.48  0.0000E+00      0.00
   90.00    236.00    -14.77  -999.99   -14.77      0.0000      0.00 LINEAR  1.9598E-01     66.21  0.0000E+00      0.00
   90.00    237.00    -13.27  -999.99   -13.27      0.0000      0.00 LINEAR  2.3301E-01     43.44  0.0000E+00      0.00
   90.00    238.00    -10.81  -999.99   -10.81      0.0000      0.00 LINEAR  3.0915E-01     29.89  0.0000E+00      0.00
   90.00    239.00     -8.39  -999.99    -8.39      0.0000      0.00 LINEAR  4.0836E-01     23.71  0.0000E+00      0.00
   90.00    240.00     -6.28  -999.99    -6.28      0.0000      0.00 LINEAR  5.2102E-01     21.85  0.0000E+00      0.00
   90.00    241.00     -4.47  -999.99    -4.47      0.0000      0.00 LINEAR  6.4147E-01     22.51  0.0000E+00      0.00
   90.00    242.00     -2.94  -999.99    -2.94      0.0000      0.00 LINEAR  7.6540E-01     24.73  0.0000E+00      0.00
   90.00    243.00     -1.64  -999.99    -1.64      0.0000      0.00 LINEAR  8.8883E-01     27.99  0.0000E+00      0.00
   90.00    244.00     -0.55  -999.99    -0.55      0.0000      0.00 LINEAR  1.0077E+00     31.94  0.0000E+00      0.00
   90.00    245.00      0.35  -999.99     0.35      0.0000      0.00 LINEAR  1.1181E+00     36.36  0.0000E+00      0.00
   90.00    246.00      1.08  -999.99     1.08      0.0000      0.00 LINEAR  1.2158E+00     41.07  0.0000E+00      0.00
   90.00    247.00      1.64  -999.99     1.64      0.0000      0.00 LINEAR  1.2971E+00     45.91  0.0000E+00      0.00
   90.00    248.00      2.05  -999.99     2.05      0.0000      0.00 LINEAR  1.3588E+00     50.73  0.0000E+00      0.00
   90.00    249.00      2.30  -999.99     2.30      0.0000      0.00 LINEAR  1.3985E+00     55.36  0.0000E+00      0.00
   90.00    250.00      2.40  -999.99     2.40      0.0000      0.00 LINEAR  1.4152E+00     59.61  0.0000E+00      0.00
   90.00    251.00      2.37  -999.99     2.37      0.0000      0.00 LINEAR  1.4095E+00     63.25  0.0000E+00      0.00
   90.00    252.00      2.21  -999.99     2.21      0.0000      0.00 LINEAR  1.3849E+00     66.00  0.0000E+00      0.00
   90.00    253.00      1.98  -999.99     1.98      0.0000      0.00 LINEAR  1.3482E+00     67.53  0.0000E+00      0.00
   90.00    254.00      1.73  -999.99     1.73      0.0000      0.00 LINEAR  1.3107E+00     67.53  0.0000E+00      0.00
   90.00    255.00      1.59  -999.99     1.59      0.0000      0.00 LINEAR  1.2886E+00     65.87  0.0000E+00      0.00
   90.00    256.00      1.67  -999.99     1.67      0.0000      0.00 LINEAR  1.3008E+00     62.85  0.0000E+00      0.00
   90.00    257.00      2.08  -999.99     2.08      0.0000      0.00 LINEAR  1.3642E+00     59.34  0.0000E+00      0.00
   90.00    258.00      2.83  -999.99     2.83      0.0000      0.00 LINEAR  1.4870E+00     56.50  0.0000E+00      0.00
   90.00    259.00      3.82  -999.99     3.82      0.0000      0.00 LINEAR  1.6659E+00     55.22  0.0000E+00      0.00
   90.00    260.00      4.91  -999.99     4.91      0.0000      0.00 LINEAR  1.8897E+00     55.82  0.0000E+00      0.00
   90.00    261.00      6.01  -999.99     6.01      0.0000      0.00 LINEAR  2.1434E+00     58.20  0.0000E+00      0.00
   90.00    262.00      7.03  -999.99     7.03      0.0000      0.00 LINEAR  2.4122E+00     62.05  0.0000E+00      0.00
   90.00    263.00      7.95  -999.99     7.95      0.0000      0.00 LINEAR  2.6823E+00     67.08  0.0000E+00      0.00
   90.00    264.00      8.76  -999.99     8.76      0.0000      0.00 LINEAR  2.9414E+00     73.00  0.0000E+00      0.00
   90.00    265.00      9.43  -999.99     9.43      0.0000      0.00 LINEAR  3.1786E+00     79.62  0.0000E+00      0.00
   90.00    266.00      9.97  -999.99     9.97      0.0000      0.00 LINEAR  3.3845E+00     86.76  0.0000E+00      0.00
   90.00    267.00     10.39  -999.99    10.39      0.0000      0.00 LINEAR  3.5510E+00     94.30  0.0000E+00      0.00
   90.00    268.00     10.68  -999.99    10.68      0.0000      0.00 LINEAR  3.6717E+00    102.14  0.0000E+00      0.00
   90.00    269.00     10.85  -999.99    10.85      0.0000      0.00 LINEAR  3.7420E+00    110.20  0.0000E+00      0.00
   90.00    270.00     10.89  -999.99    10.89      0.0000      0.00 LINEAR  3.7588E+00    118.40  0.0000E+00      0.00
   90.00    271.00     10.80  -999.99    10.80      0.0000      0.00 LINEAR  3.7209E+00    126.69  0.0000E+00      0.00
   90.00    272.00     10.58  -999.99    10.58      0.0000      0.00 LINEAR  3.6289E+00    135.00  0.0000E+00      0.00
   90.00    273.00     10.23  -999.99    10.23      0.0000      0.00 LINEAR  3.4850E+00    143.27  0.0000E+00      0.00
   90.00    274.00      9.74  -999.99     9.74      0.0000      0.00 LINEAR  3.2935E+00    151.44  0.0000E+00      0.00
   90.00    275.00      9.10  -999.99     9.10      0.0000      0.00 LINEAR  3.0597E+00    159.40  0.0000E+00      0.00
   90.00    276.00      8.30  -999.99     8.30      0.0000      0.00 LINEAR  2.7910E+00    167.05  0.0000E+00      0.00
   90.00    277.00      7.33  -999.99     7.33      0.0000      0.00 LINEAR  2.4956E+00    174.24  0.0000E+00      0.00
   90.00    278.00      6.17  -999.99     6.17      0.0000      0.00 LINEAR  2.1833E+00   -179.28  0.0000E+00      0.00
   90.00    279.00      4.80  -999.99     4.80      0.0000      0.00 LINEAR  1.8654E+00   -173.86  0.0000E+00      0.00
   90.00    280.00      3.22  -999.99     3.22      0.0000      0.00 LINEAR  1.5549E+00   -170.06  0.0000E+00      0.00
   90.00    281.00      1.45  -999.99     1.45      0.0000      0.00 LINEAR  1.2682E+00   -168.76  0.0000E+00      0.00
   90.00    282.00     -0.39  -999.99    -0.39      0.0000      0.00 LINEAR  1.0268E+00   -171.19  0.0000E+00      0.00
   90.00    283.00     -1.94  -999.99    -1.94      0.0000      0.00 LINEAR  8.5828E-01   -178.33  0.0000E+00      0.00
   90.00    284.00     -2.70  -999.99    -2.70      0.0000      0.00 LINEAR  7.8694E-01    171.15  0.0000E+00      0.00
   90.00    285.00     -2.46  -999.99    -2.46      0.0000      0.00 LINEAR  8.0904E-01    161.67  0.0000E+00      0.00
   90.00    286.00     -1.64  -999.99    -1.64      0.0000      0.00 LINEAR  8.8872E-01    156.57  0.0000E+00      0.00
   90.00    287.00     -0.73  -999.99    -0.73      0.0000      0.00 LINEAR  9.8661E-01    155.91  0.0000E+00      0.00
   90.00    288.00      0.03  -999.99     0.03      0.0000      0.00 LINEAR  1.0769E+00    158.45  0.0000E+00      0.00
   90.00    289.00      0.57  -999.99     0.57      0.0000      0.00 LINEAR  1.1458E+00    163.09  0.0000E+00      0.00
   90.00    290.00      0.87  -999.99     0.87      0.0000      0.00 LINEAR  1.1870E+00    169.12  0.0000E+00      0.00
   90.00    291.00      0.96  -999.99     0.96      0.0000      0.00 LINEAR  1.1983E+00    176.09  0.0000E+00      0.00
   90.00    292.00      0.83  -999.99     0.83      0.0000      0.00 LINEAR  1.1806E+00   -176.27  0.0000E+00      0.00
   90.00    293.00      0.49  -999.99     0.49      0.0000      0.00 LINEAR  1.1360E+00   -168.14  0.0000E+00      0.00
   90.00    294.00     -0.04  -999.99    -0.04      0.0000      0.00 LINEAR  1.0681E+00   -159.60  0.0000E+00      0.00
   90.00    295.00     -0.78  -999.99    -0.78      0.0000      0.00 LINEAR  9.8134E-01   -150.70  0.0000E+00      0.00
   90.00    296.00     -1.72  -999.99    -1.72      0.0000      0.00 LINEAR  8.8038E-01   -141.46  0.0000E+00      0.00
   90.00    297.00     -2.88  -999.99    -2.88      0.0000      0.00 LINEAR  7.7022E-01   -131.83  0.0000E+00      0.00
   90.00    298.00     -4.28  -999.99    -4.28      0.0000      0.00 LINEAR  6.5588E-01   -121.70  0.0000E+00      0.00
   90.00    299.00     -5.93  -999.99    -5.93      0.0000      0.00 LINEAR  5.4222E-01   -110.91  0.0000E+00      0.00
   90.00    300.00     -7.87  -999.99    -7.87      0.0000      0.00 LINEAR  4.3388E-01    -99.11  0.0000E+00      0.00
   90.00    301.00    -10.11  -999.99   -10.11      0.0000      0.00 LINEAR  3.3526E-01    -85.75  0.0000E+00      0.00
   90.00    302.00    -12.63  -999.99   -12.63      0.0000      0.00 LINEAR  2.5064E-01    -69.86  0.0000E+00      0.00
   90.00    303.00    -15.30  -999.99   -15.30      0.0000      0.00 LINEAR  1.8432E-01    -50.10  0.0000E+00      0.00
   90.00    304.00    -17.69  -999.99   -17.69      0.0000      0.00 LINEAR  1.4004E-01    -25.65  0.0000E+00      0.00
   90.00    305.00    -19.20  -999.99   -19.20      0.0000      0.00 LINEAR  1.1769E-01      0.79  0.0000E+00      0.00
   90.00    306.00    -19.82  -999.99   -19.82      0.0000      0.00 LINEAR  1.0958E-01     23.04  0.0000E+00      0.00
   90.00    307.00    -20.17  -999.99   -20.17      0.0000      0.00 LINEAR  1.0523E-01     37.23  0.0000E+00      0.00
   90.00    308.00    -20.67  -999.99   -20.67      0.0000      0.00 LINEAR  9.9426E-02     42.29  0.0000E+00      0.00
   90.00    309.00    -21.08  -999.99   -21.08      0.0000      0.00 LINEAR  9.4819E-02     37.31  0.0000E+00      0.00
   90.00    310.00    -20.49  -999.99   -20.49      0.0000      0.00 LINEAR  1.0142E-01     24.09  0.0000E+00      0.00
   90.00    311.00    -18.44  -999.99   -18.44      0.0000      0.00 LINEAR  1.2848E-01     11.25  0.0000E+00      0.00
   90.00    312.00    -15.75  -999.99   -15.75      0.0000      0.00 LINEAR  1.7515E-01      4.78  0.0000E+00      0.00
   90.00    313.00    -13.17  -999.99   -13.17      0.0000      0.00 LINEAR  2.3571E-01      3.68  0.0000E+00      0.00
   90.00    314.00    -10.92  -999.99   -10.92      0.0000      0.00 LINEAR  3.0533E-01      5.73  0.0000E+00      0.00
   90.00    315.00     -9.01  -999.99    -9.01      0.0000      0.00 LINEAR  3.8044E-01      9.51  0.0000E+00      0.00
   90.00    316.00     -7.39  -999.99    -7.39      0.0000      0.00 LINEAR  4.5822E-01     14.24  0.0000E+00      0.00
   90.00    317.00     -6.03  -999.99    -6.03      0.0000      0.00 LINEAR  5.3628E-01     19.52  0.0000E+00      0.00
   90.00    318.00     -4.87  -999.99    -4.87      0.0000      0.00 LINEAR  6.1258E-01     25.08  0.0000E+00      0.00
   90.00    319.00     -3.90  -999.99    -3.90      0.0000      0.00 LINEAR  6.8535E-01     30.79  0.0000E+00      0.00
   90.00    320.00     -3.08  -999.99    -3.08      0.0000      0.00 LINEAR  7.5308E-01     36.56  0.0000E+00      0.00
   90.00    321.00     -2.40  -999.99    -2.40      0.0000      0.00 LINEAR  8.1454E-01     42.32  0.0000E+00      0.00
   90.00    322.00     -1.84  -999.99    -1.84      0.0000      0.00 LINEAR  8.6875E-01     48.03  0.0000E+00      0.00
   90.00    323.00     -1.39  -999.99    -1.39      0.0000      0.00 LINEAR  9.1499E-01     53.67  0.0000E+00      0.00
   90.00    324.00     -1.04  -999.99    -1.04      0.0000      0.00 LINEAR  9.5278E-01     59.21  0.0000E+00      0.00
   90.00    325.00     -0.77  -999.99    -0.77      0.0000      0.00 LINEAR  9.8185E-01     64.64  0.0000E+00      0.00
   90.00    326.00     -0.60  -999.99    -0.60      0.0000      0.00 LINEAR  1.0022E+00     69.94  0.0000E+00      0.00
   90.00    327.00     -0.50  -999.99    -0.50      0.0000      0.00 LINEAR  1.0138E+00     75.10  0.0000E+00      0.00
   90.00    328.00     -0.47  -999.99    -0.47      0.0000      0.00 LINEAR  1.0171E+00     80.12  0.0000E+00      0.00
   90.00    329.00     -0.51  -999.99    -0.51      0.0000      0.00 LINEAR  1.0125E+00     84.98  0.0000E+00      0.00
   90.00    330.00     -0.61  -999.99    -0.61      0.0000      0.00 LINEAR  1.0004E+00     89.68  0.0000E+00      0.00
   90.00    331.00     -0.78  -999.99    -0.78      0.0000      0.00 LINEAR  9.8159E-01     94.21  0.0000E+00      0.00
   90.00    332.00     -1.00  -999.99    -1.00      0.0000      0.00 LINEAR  9.5663E-01     98.57  0.0000E+00      0.00
   90.00    333.00     -1.28  -999.99    -1.28      0.0000      0.00 LINEAR  9.2625E-01    102.75  0.0000E+00      0.00
   90.00    334.00     -1.62  -999.99    -1.62      0.0000      0.00 LINEAR  8.9121E-01    106.74  0.0000E+00      0.00
   90.00    335.00     -2.00  -999.99    -2.00      0.0000      0.00 LINEAR  8.5224E-01    110.53  0.0000E+00      0.00
   90.00    336.00     -2.45  -999.99    -2.45      0.0000      0.00 LINEAR  8.1008E-01    114.12  0.0000E+00      0.00
   90.00    337.00     -2.94  -999.99    -2.94      0.0000      0.00 LINEAR  7.6545E-01    117.51  0.0000E+00      0.00
   90.00    338.00     -3.48  -999.99    -3.48      0.0000      0.00 LINEAR  7.1901E-01    120.67  0.0000E+00      0.00
   90.00    339.00     -4.08  -999.99    -4.08      0.0000      0.00 LINEAR  6.7143E-01    123.59  0.0000E+00      0.00
   90.00    340.00     -4.72  -999.99    -4.72      0.0000      0.00 LINEAR  6.2331E-01    126.27  0.0000E+00      0.00
   90.00    341.00     -5.42  -999.99    -5.42      0.0000      0.00 LINEAR  5.7520E-01    128.69  0.0000E+00      0.00
   90.00    342.00     -6.17  -999.99    -6.17      0.0000      0.00 LINEAR  5.2762E-01    130.82  0.0000E+00      0.00
   90.00    343.00     -6.97  -999.99    -6.97      0.0000      0.00 LINEAR  4.8103E-01    132.64  0.0000E+00      0.00
   90.00    344.00     -7.83  -999.99    -7.83      0.0000      0.00 LINEAR  4.3586E-01    134.12  0.0000E+00      0.00
   90.00    345.00     -8.74  -999.99    -8.74      0.0000      0.00 LINEAR  3.9248E-01    135.22  0.0000E+00      0.00
   90.00    346.00     -9.70  -999.99    -9.70      0.0000      0.00 LINEAR  3.5124E-01    135.90  0.0000E+00      0.00
   90.00    347.00    -10.72  -999.99   -10.72      0.0000      0.00 LINEAR  3.1245E-01    136.10  0.0000E+00      0.00
   90.00    348.00    -11.79  -999.99   -11.79      0.0000      0.00 LINEAR  2.7639E-01    135.75  0.0000E+00      0.00
   90.00    349.00    -12.89  -999.99   -12.89      0.0000      0.00 LINEAR  2.4331E-01    134.76  0.0000E+00      0.00
   90.00    350.00    -14.03  -999.99   -14.03      0.0000      0.00 LINEAR  2.1347E-01    133.06  0.0000E+00      0.00
   90.00    351.00    -15.17  -999.99   -15.17      0.0000      0.00 LINEAR  1.8708E-01    130.56  0.0000E+00      0.00
   90.00    352.00    -16.30  -999.99   -16.30      0.0000      0.00 LINEAR  1.6434E-01    127.21  0.0000E+00      0.00
   90.00    353.00    -17.37  -999.99   -17.37      0.0000      0.00 LINEAR  1.4536E-01    123.02  0.0000E+00      0.00
   90.00    354.00    -18.33  -999.99   -18.33      0.0000      0.00 LINEAR  1.3017E-01    118.13  0.0000E+00      0.00
   90.00    355.00    -19.13  -999.99   -19.13      0.0000      0.00 LINEAR  1.1863E-01    112.84  0.0000E+00      0.00
   90.00    356.00    -19.76  -999.99   -19.76      0.0000      0.00 LINEAR  1.1038E-01    107.58  0.0000E+00      0.00
   90.00    357.00    -20.20  -999.99   -20.20      0.0000      0.00 LINEAR  1.0489E-01    102.88  0.0000E+00      0.00
   90.00    358.00    -20.48  -999.99   -20.48      0.0000      0.00 LINEAR  1.0156E-01     99.19  0.0000E+00      0.00
   90.00    359.00    -20.63  -999.99   -20.63      0.0000      0.00 LINEAR  9.9826E-02     96.85  0.0000E+00      0.00
   90.00    360.00    -20.68  -999.99   -20.68      0.0000      0.00 LINEAR  9.9293E-02     96.05  0.0000E+00      0.00








*****  DATA CARD N0.  13 EN   0     1   361  1000 9.00000E+001 0.00000E+000 0.00000E+000 1.00000E+000 0.00000E+000 0.00000E+000

  TOTAL RUN TIME: 15 msec