


                                __________________________________________
                               |                                          |
                               | NUMERICAL ELECTROMAGNETICS CODE (nec2++) |
                               | Translated to 'C++' in Double Precision  |
                               |        Version 1.5.4 [2014-12-06]        |
                               |__________________________________________|



                               ---------------- COMMENTS ----------------
                                forw: 90, 0 ; back: 0, 0
                               



                                -------- STRUCTURE SPECIFICATION --------
                                COORDINATES MUST BE INPUT IN
                                METERS OR BE SCALED TO METERS
                                BEFORE STRUCTURE INPUT IS ENDED
  WIRE                                                                                 SEG FIRST  LAST  TAG
   No:        X1         Y1         Z1         X2         Y2         Z2       RADIUS   No:   SEG   SEG  No:

     1      0.0000     0.0000     0.0000     0.0000     0.0000     0.0582     0.0004     7     1     7    1
     2      0.0625     0.0000     0.0000     0.0625     0.0000     0.0582     0.0004     7     8    14    2
     3      0.1250     0.0000     0.0000     0.1250     0.0000     0.0582     0.0004     7    15    21    3
     4      0.1875     0.0000     0.0000     0.1875     0.0000     0.0582     0.0004     7    22    28    4
     5      0.2500     0.0000     0.0000     0.2500     0.0000     0.0582     0.0004     7    29    35    5
     6      0.3125     0.0000     0.0000     0.3125     0.0000     0.0582     0.0004     7    36    42    6
     7      0.3750     0.0000     0.0000     0.3750     0.0000     0.0582     0.0004     7    43    49    7
     8      0.4375     0.0000     0.0000     0.4375     0.0000     0.0582     0.0004     7    50    56    8

     TOTAL SEGMENTS USED: 56   SEGMENTS IN A SYMMETRIC CELL: 56   SYMMETRY FLAG: 0


                               ---------- SEGMENTATION DATA ----------
                                        COORDINATES IN METERS
                            I+ AND I- INDICATE THE SEGMENTS BEFORE AND AFTER I

   SEG    COORDINATES OF SEGM CENTER     SEGM    ORIENTATION ANGLES    WIRE    CONNECTION DATA   TAG
   No:       X         Y         Z      LENGTH     ALPHA      BETA    RADIUS    I-     I    I+   NO:
     1    0.0000    0.0000    0.0042    0.0083   90.0000    0.0000    0.0004     0     1     2     1
     2    0.0000    0.0000    0.0125    0.0083   90.0000    0.0000    0.0004     1     2     3     1
     3    0.0000    0.0000    0.0208    0.0083   90.0000    0.0000    0.0004     2     3     4     1
     4    0.0000    0.0000    0.0291    0.0083   90.0000    0.0000    0.0004     3     4     5     1
     5    0.0000    0.0000    0.0374    0.0083   90.0000    0.0000    0.0004     4     5     6     1
     6    0.0000    0.0000    0.0457    0.0083   90.0000    0.0000    0.0004     5     6     7     1
     7    0.0000    0.0000    0.0540    0.0083   90.0000    0.0000    0.0004     6     7     0     1
     8    0.0625    0.0000    0.0042    0.0083   90.0000    0.0000    0.0004     0     8     9     2
     9    0.0625    0.0000    0.0125    0.0083   90.0000    0.0000    0.0004     8     9    10     2
    10    0.0625    0.0000    0.0208    0.0083   90.0000    0.0000    0.0004     9    10    11     2
    11    0.0625    0.0000    0.0291    0.0083   90.0000    0.0000    0.0004    10    11    12     2
    12    0.0625    0.0000    0.0374    0.0083   90.0000    0.0000    0.0004    11    12    13     2
    13    0.0625    0.0000    0.0457    0.0083   90.0000    0.0000    0.0004    12    13    14     2
    14    0.0625    0.0000    0.0540    0.0083   90.0000    0.0000    0.0004    13    14     0     2
    15    0.1250    0.0000    0.0042    0.0083   90.0000    0.0000    0.0004     0    15    16     3
    16    0.1250    0.0000    0.0125    0.0083   90.0000    0.0000    0.0004    15    16    17     3
    17    0.1250    0.0000    0.0208    0.0083   90.0000    0.0000    0.0004    16    17    18     3
    18    0.1250    0.0000    0.0291    0.0083   90.0000    0.0000    0.0004    17    18    19     3
    19    0.1250    0.0000    0.0374    0.0083   90.0000    0.0000    0.0004    18    19    20     3
    20    0.1250    0.0000    0.0457    0.0083   90.0000    0.0000    0.0004    19    20    21     3
    21    0.1250    0.0000    0.0540    0.0083   90.0000    0.0000    0.0004    20    21     0     3
    22    0.1875    0.0000    0.0042    0.0083   90.0000    0.0000    0.0004     0    22    23     4
    23    0.1875    0.0000    0.0125    0.0083   90.0000    0.0000    0.0004    22    23    24     4
    24    0.1875    0.0000    0.0208    0.0083   90.0000    0.0000    0.0004    23    24    25     4
    25    0.1875    0.0000    0.0291    0.0083   90.0000    0.0000    0.0004    24    25    26     4
    26    0.1875    0.0000    0.0374    0.0083   90.0000    0.0000    0.0004    25    26    27     4
    27    0.1875    0.0000    0.0457    0.0083   90.0000    0.0000    0.0004    26    27    28     4
    28    0.1875    0.0000    0.0540    0.0083   90.0000    0.0000    0.0004    27    28     0     4
    29    0.2500    0.0000    0.0042    0.0083   90.0000    0.0000    0.0004     0    29    30     5
    30    0.2500    0.0000    0.0125    0.0083   90.0000    0.0000    0.0004    29    30    31     5
    31    0.2500    0.0000    0.0208    0.0083   90.0000    0.0000    0.0004    30    31    32     5
    32    0.2500    0.0000    0.0291    0.0083   90.0000    0.0000    0.0004    31    32    33     5
    33    0.2500    0.0000    0.0374    0.0083   90.0000    0.0000    0.0004    32    33    34     5
    34    0.2500    0.0000    0.0457    0.0083   90.0000    0.0000    0.0004    33    34    35     5
    35    0.2500    0.0000    0.0540    0.0083   90.0000    0.0000    0.0004    34    35     0     5
    36    0.3125    0.0000    0.0042    0.0083   90.0000    0.0000    0.0004     0    36    37     6
    37    0.3125    0.0000    0.0125    0.0083   90.0000    0.0000    0.0004    36    37    38     6
    38    0.3125    0.0000    0.0208    0.0083   90.0000    0.0000    0.0004    37    38    39     6
    39    0.3125    0.0000    0.0291    0.0083   90.0000    0.0000    0.0004    38    39    40     6
    40    0.3125    0.0000    0.0374    0.0083   90.0000    0.0000    0.0004    39    40    41     6
    41    0.3125    0.0000    0.0457    0.0083   90.0000    0.0000    0.0004    40    41    42     6
    42    0.3125    0.0000    0.0540    0.0083   90.0000    0.0000    0.0004    41    42     0     6
    43    0.3750    0.0000    0.0042    0.0083   90.0000    0.0000    0.0004     0    43    44     7
    44    0.3750    0.0000    0.0125    0.0083   90.0000    0.0000    0.0004    43    44    45     7
    45    0.3750    0.0000    0.0208    0.0083   90.0000    0.0000    0.0004    44    45    46     7
    46    0.3750    0.0000    0.0291    0.0083   90.0000    0.0000    0.0004    45    46    47     7
    47    0.3750    0.0000    0.0374    0.0083   90.0000    0.0000    0.0004    46    47    48     7
    48    0.3750    0.0000    0.0457    0.0083   90.0000    0.0000    0.0004    47    48    49     7
    49    0.3750    0.0000    0.0540    0.0083   90.0000    0.0000    0.0004    48    49     0     7
    50    0.4375    0.0000    0.0042    0.0083   90.0000    0.0000    0.0004     0    50    51     8
    51    0.4375    0.0000    0.0125    0.0083   90.0000    0.0000    0.0004    50    51    52     8
    52    0.4375    0.0000    0.0208    0.0083   90.0000    0.0000    0.0004    51    52    53     8
    53    0.4375    0.0000    0.0291    0.0083   90.0000    0.0000    0.0004    52    53    54     8
    54    0.4375    0.0000    0.0374    0.0083   90.0000    0.0000    0.0004    53    54    55     8
    55    0.4375    0.0000    0.0457    0.0083   90.0000    0.0000    0.0004    54    55    56     8
    56    0.4375    0.0000    0.0540    0.0083   90.0000    0.0000    0.0004    55    56     0     8



*****  DATA CARD N0.   1 EK   0     0     0     0 0.00000E+000 0.00000E+000 0.00000E+000 0.00000E+000 0.00000E+000 0.00000E+000
*****  DATA CARD N0.   2 EX   0     1     4     0 1.00000E+000 0.00000E+000 0.00000E+000 0.00000E+000 0.00000E+000 0.00000E+000
*****  DATA CARD N0.   3 EX   0     2     4     0 1.00000E+000 0.00000E+000 0.00000E+000 0.00000E+000 0.00000E+000 0.00000E+000
*****  DATA CARD N0.   4 EX   0     3     4     0 1.00000E+000 0.00000E+000 0.00000E+000 0.00000E+000 0.00000E+000 0.00000E+000
*****  DATA CARD N0.   5 EX   0     4     4     0 1.00000E+000 0.00000E+000 0.00000E+000 0.00000E+000 0.00000E+000 0.00000E+000
*****  DATA CARD N0.   6 EX   0     5     4     0 1.00000E+000 0.00000E+000 0.00000E+000 0.00000E+000 0.00000E+000 0.00000E+000
*****  DATA CARD N0.   7 EX   0     6     4     0 1.00000E+000 0.00000E+000 0.00000E+000 0.00000E+000 0.00000E+000 0.00000E+000
*****  DATA CARD N0.   8 EX   0     7     4     0 1.00000E+000 0.00000E+000 0.00000E+000 0.00000E+000 0.00000E+000 0.00000E+000
*****  DATA CARD N0.   9 EX   0     8     4     0 1.00000E+000 0.00000E+000 0.00000E+000 0.00000E+000 0.00000E+000 0.00000E+000
*****  DATA CARD N0.  10 GN  -1     0     0     0 0.00000E+000 0.00000E+000 0.00000E+000 0.00000E+000 0.00000E+000 0.00000E+000
*****  DATA CARD N0.  11 FR   0     1     0     0 2.40000E+003 0.00000E+000 0.00000E+000 0.00000E+000 0.00000E+000 0.00000E+000
*****  DATA CARD N0.  12 RP   0     1   361  1000 9.00000E+001 0.00000E+000 0.00000E+000 1.00000E+000 0.00000E+000 0.00000E+000


                               --------- FREQUENCY --------
                               FREQUENCY= 2.4000E+003 MHZ
                               WAVELENGTH=1.2491E-001 METERS


                        APPROXIMATE INTEGRATION EMPLOYED FOR SEGMENTS
                        THAT ARE MORE THAN 1.000 WAVELENGTHS APART
                        THE EXTENDED THIN WIRE KERNEL WILL BE USED



                          ------ STRUCTURE IMPEDANCE LOADING ------
                                 THIS STRUCTURE IS NOT LOADED



                            -------- ANTENNA ENVIRONMENT --------
                            FREE SPACE



                             ---------- MATRIX TIMING ----------
                               FILL= 0 msec  FACTOR: 0 msec


                      ----- ANTENNA INPUT PARAMETERS -----
  TAG   SEG       VOLTAGE (VOLTS)         CURRENT (AMPS)         IMPEDANCE (OHMS)        ADMITTANCE (MHOS)     POWER
  NO.   NO.     REAL      IMAGINARY     REAL      IMAGINARY     REAL      IMAGINARY    REAL       IMAGINARY   (WATTS)
   1     4  1.0000E+00  0.0000E+00  1.3673E-02  5.6964E-03  6.2319E+01 -2.5963E+01  1.3673E-02  5.6964E-03  6.8367E-03
   2    11  1.0000E+00  0.0000E+00  1.4422E-02  1.0485E-02  4.5361E+01 -3.2980E+01  1.4422E-02  1.0485E-02  7.2110E-03
   3    18  1.0000E+00  0.0000E+00  1.3233E-02  9.2110E-03  5.0905E+01 -3.5434E+01  1.3233E-02  9.2110E-03  6.6163E-03
   4    25  1.0000E+00  0.0000E+00  1.3765E-02  9.5385E-03  4.9080E+01 -3.4009E+01  1.3765E-02  9.5385E-03  6.8827E-03
   5    32  1.0000E+00  0.0000E+00  1.3765E-02  9.5385E-03  4.9080E+01 -3.4009E+01  1.3765E-02  9.5385E-03  6.8827E-03
   6    39  1.0000E+00  0.0000E+00  1.3233E-02  9.2110E-03  5.0905E+01 -3.5434E+01  1.3233E-02  9.2110E-03  6.6163E-03
   7    46  1.0000E+00  0.0000E+00  1.4422E-02  1.0485E-02  4.5361E+01 -3.2980E+01  1.4422E-02  1.0485E-02  7.2110E-03
   8    53  1.0000E+00  0.0000E+00  1.3673E-02  5.6964E-03  6.2319E+01 -2.5963E+01  1.3673E-02  5.6964E-03  6.8367E-03







                        ----- CURRENTS AND LOCATION -----
                            DISTANCES IN WAVELENGTHS 

   SEG  TAG    COORDINATES OF SEGM CENTER     SEGM    ------------- CURRENT (AMPS) -------------
   No:  No:       X         Y         Z      LENGTH     REAL      IMAGINARY    MAGN        PHASE
     1    1    0.0000    0.0000    0.0333   0.06655  3.8858E-03  1.0978E-03  4.0379E-03   15.775 
     2    1    0.0000    0.0000    0.0998   0.06655  9.1987E-03  2.8997E-03  9.6449E-03   17.497 
     3    1    0.0000    0.0000    0.1664   0.06655  1.2518E-02  4.5289E-03  1.3312E-02   19.889 
     4    1    0.0000    0.0000    0.2329   0.06655  1.3673E-02  5.6964E-03  1.4812E-02   22.617 
     5    1    0.0000    0.0000    0.2995   0.06655  1.2518E-02  4.5289E-03  1.3312E-02   19.889 
     6    1    0.0000    0.0000    0.3660   0.06655  9.1987E-03  2.8997E-03  9.6449E-03   17.497 
     7    1    0.0000    0.0000    0.4326   0.06655  3.8858E-03  1.0978E-03  4.0379E-03   15.775 
     8    2    0.5003    0.0000    0.0333   0.06655  4.1024E-03  2.4632E-03  4.7850E-03   30.982 
     9    2    0.5003    0.0000    0.0998   0.06655  9.7063E-03  6.1261E-03  1.1478E-02   32.258 
    10    2    0.5003    0.0000    0.1664   0.06655  1.3205E-02  8.9149E-03  1.5933E-02   34.024 
    11    2    0.5003    0.0000    0.2329   0.06655  1.4422E-02  1.0485E-02  1.7831E-02   36.019 
    12    2    0.5003    0.0000    0.2995   0.06655  1.3205E-02  8.9149E-03  1.5933E-02   34.024 
    13    2    0.5003    0.0000    0.3660   0.06655  9.7063E-03  6.1261E-03  1.1478E-02   32.258 
    14    2    0.5003    0.0000    0.4326   0.06655  4.1024E-03  2.4632E-03  4.7850E-03   30.982 
    15    3    1.0007    0.0000    0.0333   0.06655  3.7662E-03  2.1004E-03  4.3123E-03   29.148 
    16    3    1.0007    0.0000    0.0998   0.06655  8.9082E-03  5.2681E-03  1.0349E-02   30.599 
    17    3    1.0007    0.0000    0.1664   0.06655  1.2117E-02  7.7479E-03  1.4382E-02   32.596 
    18    3    1.0007    0.0000    0.2329   0.06655  1.3233E-02  9.2110E-03  1.6123E-02   34.841 
    19    3    1.0007    0.0000    0.2995   0.06655  1.2117E-02  7.7479E-03  1.4382E-02   32.596 
    20    3    1.0007    0.0000    0.3660   0.06655  8.9082E-03  5.2681E-03  1.0349E-02   30.599 
    21    3    1.0007    0.0000    0.4326   0.06655  3.7662E-03  2.1004E-03  4.3123E-03   29.148 
    22    4    1.5010    0.0000    0.0333   0.06655  3.9167E-03  2.1937E-03  4.4892E-03   29.253 
    23    4    1.5010    0.0000    0.0998   0.06655  9.2656E-03  5.4887E-03  1.0769E-02   30.641 
    24    4    1.5010    0.0000    0.1664   0.06655  1.2604E-02  8.0478E-03  1.4954E-02   32.558 
    25    4    1.5010    0.0000    0.2329   0.06655  1.3765E-02  9.5385E-03  1.6747E-02   34.719 
    26    4    1.5010    0.0000    0.2995   0.06655  1.2604E-02  8.0478E-03  1.4954E-02   32.558 
    27    4    1.5010    0.0000    0.3660   0.06655  9.2656E-03  5.4887E-03  1.0769E-02   30.641 
    28    4    1.5010    0.0000    0.4326   0.06655  3.9167E-03  2.1937E-03  4.4892E-03   29.253 
    29    5    2.0014    0.0000    0.0333   0.06655  3.9167E-03  2.1937E-03  4.4892E-03   29.253 
    30    5    2.0014    0.0000    0.0998   0.06655  9.2656E-03  5.4887E-03  1.0769E-02   30.641 
    31    5    2.0014    0.0000    0.1664   0.06655  1.2604E-02  8.0478E-03  1.4954E-02   32.558 
    32    5    2.0014    0.0000    0.2329   0.06655  1.3765E-02  9.5385E-03  1.6747E-02   34.719 
    33    5    2.0014    0.0000    0.2995   0.06655  1.2604E-02  8.0478E-03  1.4954E-02   32.558 
    34    5    2.0014    0.0000    0.3660   0.06655  9.2656E-03  5.4887E-03  1.0769E-02   30.641 
    35    5    2.0014    0.0000    0.4326   0.06655  3.9167E-03  2.1937E-03  4.4892E-03   29.253 
    36    6    2.5017    0.0000    0.0333   0.06655  3.7662E-03  2.1004E-03  4.3123E-03   29.148 
    37    6    2.5017    0.0000    0.0998   0.06655  8.9082E-03  5.2681E-03  1.0349E-02   30.599 
    38    6    2.5017    0.0000    0.1664   0.06655  1.2117E-02  7.7479E-03  1.4382E-02   32.596 
    39    6    2.5017    0.0000    0.2329   0.06655  1.3233E-02  9.2110E-03  1.6123E-02   34.841 
    40    6    2.5017    0.0000    0.2995   0.06655  1.2117E-02  7.7479E-03  1.4382E-02   32.596 
    41    6    2.5017    0.0000    0.3660   0.06655  8.9082E-03  5.2681E-03  1.0349E-02   30.599 
    42    6    2.5017    0.0000    0.4326   0.06655  3.7662E-03  2.1004E-03  4.3123E-03   29.148 
    43    7    3.0020    0.0000    0.0333   0.06655  4.1024E-03  2.4632E-03  4.7850E-03   30.982 
    44    7    3.0020    0.0000    0.0998   0.06655  9.7063E-03  6.1261E-03  1.1478E-02   32.258 
    45    7    3.0020    0.0000    0.1664   0.06655  1.3205E-02  8.9149E-03  1.5933E-02   34.024 
    46    7    3.0020    0.0000    0.2329   0.06655  1.4422E-02  1.0485E-02  1.7831E-02   36.019 
    47    7    3.0020    0.0000    0.2995   0.06655  1.3205E-02  8.9149E-03  1.5933E-02   34.024 
    48    7    3.0020    0.0000    0.3660   0.06655  9.7063E-03  6.1261E-03  1.1478E-02   32.258 
    49    7    3.0020    0.0000    0.4326   0.06655  4.1024E-03  2.4632E-03  4.7850E-03   30.982 
    50    8    3.5024    0.0000    0.0333   0.06655  3.8858E-03  1.0978E-03  4.0379E-03   15.775 
    51    8    3.5024    0.0000    0.0998   0.06655  9.1987E-03  2.8997E-03  9.6449E-03   17.497 
    52    8    3.5024    0.0000    0.1664   0.06655  1.2518E-02  4.5289E-03  1.3312E-02   19.889 
    53    8    3.5024    0.0000    0.2329   0.06655  1.3673E-02  5.6964E-03  1.4812E-02   22.617 
    54    8    3.5024    0.0000    0.2995   0.06655  1.2518E-02  4.5289E-03  1.3312E-02   19.889 
    55    8    3.5024    0.0000    0.3660   0.06655  9.1987E-03  2.8997E-03  9.6449E-03   17.497 
    56    8    3.5024    0.0000    0.4326   0.06655  3.8858E-03  1.0978E-03  4.0379E-03   15.775 






                               ---------- POWER BUDGET ---------
                               INPUT POWER   = 5.5093E-002 Watts
                               RADIATED POWER= 5.5093E-002 Watts
                               STRUCTURE LOSS= 0.0000E+000 Watts
                               NETWORK LOSS  = 0.0000E+000 Watts
                               EFFICIENCY    =  100.00 Percent


                         ----- RADIATION PATTERNS -----
 ---- ANGLES -----     ----- POWER GAINS -----       ---- POLARIZATION ----   ---- E(THETA) ----    ----- E(PHI) ------
  THETA      PHI       VERTC   HORIZ   TOTAL       AXIAL      TILT  SENSE   MAGNITUDE    PHASE    MAGNITUDE     PHASE
 DEGREES   DEGREES        DB       DB       DB       RATIO   DEGREES            VOLTS/M   DEGREES     VOLTS/M   DEGREES
   90.00      0.00    -49.27  -999.99   -49.27      0.0000      0.00 LINEAR  6.2489E-03      2.70  0.0000E+00      0.00
   90.00      1.00    -51.47  -999.99   -51.47      0.0000      0.00 LINEAR  4.8518E-03      2.61  0.0000E+00      0.00
   90.00      2.00    -68.79  -999.99   -68.79      0.0000      0.00 LINEAR  6.6080E-04      2.32  0.0000E+00      0.00
   90.00      3.00    -49.17  -999.99   -49.17      0.0000      0.00 LINEAR  6.3227E-03   -178.16  0.0000E+00      0.00
   90.00      4.00    -41.06  -999.99   -41.06      0.0000      0.00 LINEAR  1.6095E-02   -178.83  0.0000E+00      0.00
   90.00      5.00    -36.05  -999.99   -36.05      0.0000      0.00 LINEAR  2.8651E-02   -179.70  0.0000E+00      0.00
   90.00      6.00    -32.33  -999.99   -32.33      0.0000      0.00 LINEAR  4.3976E-02    179.24  0.0000E+00      0.00
   90.00      7.00    -29.33  -999.99   -29.33      0.0000      0.00 LINEAR  6.2051E-02    177.99  0.0000E+00      0.00
   90.00      8.00    -26.82  -999.99   -26.82      0.0000      0.00 LINEAR  8.2842E-02    176.55  0.0000E+00      0.00
   90.00      9.00    -24.66  -999.99   -24.66      0.0000      0.00 LINEAR  1.0630E-01    174.91  0.0000E+00      0.00
   90.00     10.00    -22.75  -999.99   -22.75      0.0000      0.00 LINEAR  1.3236E-01    173.07  0.0000E+00      0.00
   90.00     11.00    -21.06  -999.99   -21.06      0.0000      0.00 LINEAR  1.6092E-01    171.04  0.0000E+00      0.00
   90.00     12.00    -19.53  -999.99   -19.53      0.0000      0.00 LINEAR  1.9186E-01    168.81  0.0000E+00      0.00
   90.00     13.00    -18.14  -999.99   -18.14      0.0000      0.00 LINEAR  2.2503E-01    166.38  0.0000E+00      0.00
   90.00     14.00    -16.88  -999.99   -16.88      0.0000      0.00 LINEAR  2.6021E-01    163.76  0.0000E+00      0.00
   90.00     15.00    -15.73  -999.99   -15.73      0.0000      0.00 LINEAR  2.9717E-01    160.93  0.0000E+00      0.00
   90.00     16.00    -14.67  -999.99   -14.67      0.0000      0.00 LINEAR  3.3559E-01    157.90  0.0000E+00      0.00
   90.00     17.00    -13.71  -999.99   -13.71      0.0000      0.00 LINEAR  3.7512E-01    154.67  0.0000E+00      0.00
   90.00     18.00    -12.82  -999.99   -12.82      0.0000      0.00 LINEAR  4.1534E-01    151.23  0.0000E+00      0.00
   90.00     19.00    -12.02  -999.99   -12.02      0.0000      0.00 LINEAR  4.5575E-01    147.58  0.0000E+00      0.00
   90.00     20.00    -11.28  -999.99   -11.28      0.0000      0.00 LINEAR  4.9580E-01    143.72  0.0000E+00      0.00
   90.00     21.00    -10.62  -999.99   -10.62      0.0000      0.00 LINEAR  5.3487E-01    139.64  0.0000E+00      0.00
   90.00     22.00    -10.04  -999.99   -10.04      0.0000      0.00 LINEAR  5.7225E-01    135.34  0.0000E+00      0.00
   90.00     23.00     -9.52  -999.99    -9.52      0.0000      0.00 LINEAR  6.0719E-01    130.82  0.0000E+00      0.00
   90.00     24.00     -9.08  -999.99    -9.08      0.0000      0.00 LINEAR  6.3888E-01    126.06  0.0000E+00      0.00
   90.00     25.00     -8.71  -999.99    -8.71      0.0000      0.00 LINEAR  6.6645E-01    121.06  0.0000E+00      0.00
   90.00     26.00     -8.43  -999.99    -8.43      0.0000      0.00 LINEAR  6.8900E-01    115.80  0.0000E+00      0.00
   90.00     27.00     -8.22  -999.99    -8.22      0.0000      0.00 LINEAR  7.0562E-01    110.27  0.0000E+00      0.00
   90.00     28.00     -8.10  -999.99    -8.10      0.0000      0.00 LINEAR  7.1540E-01    104.44  0.0000E+00      0.00
   90.00     29.00     -8.07  -999.99    -8.07      0.0000      0.00 LINEAR  7.1747E-01     98.30  0.0000E+00      0.00
   90.00     30.00     -8.15  -999.99    -8.15      0.0000      0.00 LINEAR  7.1102E-01     91.79  0.0000E+00      0.00
   90.00     31.00     -8.35  -999.99    -8.35      0.0000      0.00 LINEAR  6.9538E-01     84.86  0.0000E+00      0.00
   90.00     32.00     -8.67  -999.99    -8.67      0.0000      0.00 LINEAR  6.7003E-01     77.43  0.0000E+00      0.00
   90.00     33.00     -9.14  -999.99    -9.14      0.0000      0.00 LINEAR  6.3473E-01     69.38  0.0000E+00      0.00
   90.00     34.00     -9.78  -999.99    -9.78      0.0000      0.00 LINEAR  5.8959E-01     60.51  0.0000E+00      0.00
   90.00     35.00    -10.62  -999.99   -10.62      0.0000      0.00 LINEAR  5.3529E-01     50.51  0.0000E+00      0.00
   90.00     36.00    -11.68  -999.99   -11.68      0.0000      0.00 LINEAR  4.7345E-01     38.87  0.0000E+00      0.00
   90.00     37.00    -12.99  -999.99   -12.99      0.0000      0.00 LINEAR  4.0735E-01     24.67  0.0000E+00      0.00
   90.00     38.00    -14.47  -999.99   -14.47      0.0000      0.00 LINEAR  3.4345E-01      6.39  0.0000E+00      0.00
   90.00     39.00    -15.82  -999.99   -15.82      0.0000      0.00 LINEAR  2.9423E-01    -17.94  0.0000E+00      0.00
   90.00     40.00    -16.28  -999.99   -16.28      0.0000      0.00 LINEAR  2.7885E-01    -48.21  0.0000E+00      0.00
   90.00     41.00    -15.34  -999.99   -15.34      0.0000      0.00 LINEAR  3.1072E-01    -78.61  0.0000E+00      0.00
   90.00     42.00    -13.54  -999.99   -13.54      0.0000      0.00 LINEAR  3.8244E-01   -103.41  0.0000E+00      0.00
   90.00     43.00    -11.61  -999.99   -11.61      0.0000      0.00 LINEAR  4.7736E-01   -122.51  0.0000E+00      0.00
   90.00     44.00     -9.88  -999.99    -9.88      0.0000      0.00 LINEAR  5.8263E-01   -137.91  0.0000E+00      0.00
   90.00     45.00     -8.42  -999.99    -8.42      0.0000      0.00 LINEAR  6.8976E-01   -151.12  0.0000E+00      0.00
   90.00     46.00     -7.21  -999.99    -7.21      0.0000      0.00 LINEAR  7.9263E-01   -163.05  0.0000E+00      0.00
   90.00     47.00     -6.24  -999.99    -6.24      0.0000      0.00 LINEAR  8.8617E-01   -174.24  0.0000E+00      0.00
   90.00     48.00     -5.49  -999.99    -5.49      0.0000      0.00 LINEAR  9.6593E-01    174.99  0.0000E+00      0.00
   90.00     49.00     -4.95  -999.99    -4.95      0.0000      0.00 LINEAR  1.0278E+00    164.43  0.0000E+00      0.00
   90.00     50.00     -4.62  -999.99    -4.62      0.0000      0.00 LINEAR  1.0682E+00    153.92  0.0000E+00      0.00
   90.00     51.00     -4.49  -999.99    -4.49      0.0000      0.00 LINEAR  1.0839E+00    143.33  0.0000E+00      0.00
   90.00     52.00     -4.58  -999.99    -4.58      0.0000      0.00 LINEAR  1.0723E+00    132.54  0.0000E+00      0.00
   90.00     53.00     -4.92  -999.99    -4.92      0.0000      0.00 LINEAR  1.0316E+00    121.38  0.0000E+00      0.00
   90.00     54.00     -5.53  -999.99    -5.53      0.0000      0.00 LINEAR  9.6114E-01    109.64  0.0000E+00      0.00
   90.00     55.00     -6.48  -999.99    -6.48      0.0000      0.00 LINEAR  8.6160E-01     96.93  0.0000E+00      0.00
   90.00     56.00     -7.85  -999.99    -7.85      0.0000      0.00 LINEAR  7.3587E-01     82.54  0.0000E+00      0.00
   90.00     57.00     -9.76  -999.99    -9.76      0.0000      0.00 LINEAR  5.9096E-01     64.92  0.0000E+00      0.00
   90.00     58.00    -12.24  -999.99   -12.24      0.0000      0.00 LINEAR  4.4414E-01     40.34  0.0000E+00      0.00
   90.00     59.00    -14.50  -999.99   -14.50      0.0000      0.00 LINEAR  3.4253E-01      1.59  0.0000E+00      0.00
   90.00     60.00    -13.83  -999.99   -13.83      0.0000      0.00 LINEAR  3.6986E-01    -46.84  0.0000E+00      0.00
   90.00     61.00    -10.81  -999.99   -10.81      0.0000      0.00 LINEAR  5.2341E-01    -82.16  0.0000E+00      0.00
   90.00     62.00     -7.92  -999.99    -7.92      0.0000      0.00 LINEAR  7.3052E-01   -105.09  0.0000E+00      0.00
   90.00     63.00     -5.63  -999.99    -5.63      0.0000      0.00 LINEAR  9.5088E-01   -122.31  0.0000E+00      0.00
   90.00     64.00     -3.87  -999.99    -3.87      0.0000      0.00 LINEAR  1.1644E+00   -136.91  0.0000E+00      0.00
   90.00     65.00     -2.54  -999.99    -2.54      0.0000      0.00 LINEAR  1.3571E+00   -150.19  0.0000E+00      0.00
   90.00     66.00     -1.57  -999.99    -1.57      0.0000      0.00 LINEAR  1.5174E+00   -162.77  0.0000E+00      0.00
   90.00     67.00     -0.92  -999.99    -0.92      0.0000      0.00 LINEAR  1.6348E+00   -174.97  0.0000E+00      0.00
   90.00     68.00     -0.58  -999.99    -0.58      0.0000      0.00 LINEAR  1.6995E+00    172.98  0.0000E+00      0.00
   90.00     69.00     -0.56  -999.99    -0.56      0.0000      0.00 LINEAR  1.7033E+00    160.92  0.0000E+00      0.00
   90.00     70.00     -0.90  -999.99    -0.90      0.0000      0.00 LINEAR  1.6393E+00    148.68  0.0000E+00      0.00
   90.00     71.00     -1.65  -999.99    -1.65      0.0000      0.00 LINEAR  1.5026E+00    136.00  0.0000E+00      0.00
   90.00     72.00     -2.97  -999.99    -2.97      0.0000      0.00 LINEAR  1.2911E+00    122.40  0.0000E+00      0.00
   90.00     73.00     -5.13  -999.99    -5.13      0.0000      0.00 LINEAR  1.0069E+00    106.67  0.0000E+00      0.00
   90.00     74.00     -8.74  -999.99    -8.74      0.0000      0.00 LINEAR  6.6447E-01     84.60  0.0000E+00      0.00
   90.00     75.00    -14.15  -999.99   -14.15      0.0000      0.00 LINEAR  3.5631E-01     33.98  0.0000E+00      0.00
   90.00     76.00    -10.93  -999.99   -10.93      0.0000      0.00 LINEAR  5.1647E-01    -47.38  0.0000E+00      0.00
   90.00     77.00     -4.95  -999.99    -4.95      0.0000      0.00 LINEAR  1.0282E+00    -79.87  0.0000E+00      0.00
   90.00     78.00     -0.92  -999.99    -0.92      0.0000      0.00 LINEAR  1.6344E+00    -98.17  0.0000E+00      0.00
   90.00     79.00      2.00  -999.99     2.00      0.0000      0.00 LINEAR  2.2879E+00   -112.69  0.0000E+00      0.00
   90.00     80.00      4.26  -999.99     4.26      0.0000      0.00 LINEAR  2.9670E+00   -125.74  0.0000E+00      0.00
   90.00     81.00      6.06  -999.99     6.06      0.0000      0.00 LINEAR  3.6535E+00   -138.06  0.0000E+00      0.00
   90.00     82.00      7.54  -999.99     7.54      0.0000      0.00 LINEAR  4.3296E+00   -149.99  0.0000E+00      0.00
   90.00     83.00      8.75  -999.99     8.75      0.0000      0.00 LINEAR  4.9777E+00   -161.66  0.0000E+00      0.00
   90.00     84.00      9.74  -999.99     9.74      0.0000      0.00 LINEAR  5.5807E+00   -173.16  0.0000E+00      0.00
   90.00     85.00     10.55  -999.99    10.55      0.0000      0.00 LINEAR  6.1222E+00    175.45  0.0000E+00      0.00
   90.00     86.00     11.18  -999.99    11.18      0.0000      0.00 LINEAR  6.5875E+00    164.16  0.0000E+00      0.00
   90.00     87.00     11.67  -999.99    11.67      0.0000      0.00 LINEAR  6.9637E+00    152.94  0.0000E+00      0.00
   90.00     88.00     12.01  -999.99    12.01      0.0000      0.00 LINEAR  7.2402E+00    141.79  0.0000E+00      0.00
   90.00     89.00     12.21  -999.99    12.21      0.0000      0.00 LINEAR  7.4094E+00    130.69  0.0000E+00      0.00
   90.00     90.00     12.27  -999.99    12.27      0.0000      0.00 LINEAR  7.4663E+00    119.66  0.0000E+00      0.00
   90.00     91.00     12.21  -999.99    12.21      0.0000      0.00 LINEAR  7.4094E+00    108.69  0.0000E+00      0.00
   90.00     92.00     12.01  -999.99    12.01      0.0000      0.00 LINEAR  7.2402E+00     97.78  0.0000E+00      0.00
   90.00     93.00     11.67  -999.99    11.67      0.0000      0.00 LINEAR  6.9637E+00     86.95  0.0000E+00      0.00
   90.00     94.00     11.18  -999.99    11.18      0.0000      0.00 LINEAR  6.5875E+00     76.20  0.0000E+00      0.00
   90.00     95.00     10.55  -999.99    10.55      0.0000      0.00 LINEAR  6.1222E+00     65.56  0.0000E+00      0.00
   90.00     96.00      9.74  -999.99     9.74      0.0000      0.00 LINEAR  5.5807E+00     55.04  0.0000E+00      0.00
   90.00     97.00      8.75  -999.99     8.75      0.0000      0.00 LINEAR  4.9777E+00     44.68  0.0000E+00      0.00
   90.00     98.00      7.54  -999.99     7.54      0.0000      0.00 LINEAR  4.3296E+00     34.54  0.0000E+00      0.00
   90.00     99.00      6.06  -999.99     6.06      0.0000      0.00 LINEAR  3.6535E+00     24.70  0.0000E+00      0.00
   90.00    100.00      4.26  -999.99     4.26      0.0000      0.00 LINEAR  2.9670E+00     15.32  0.0000E+00      0.00
   90.00    101.00      2.00  -999.99     2.00      0.0000      0.00 LINEAR  2.2879E+00      6.73  0.0000E+00      0.00
   90.00    102.00     -0.92  -999.99    -0.92      0.0000      0.00 LINEAR  1.6344E+00     -0.31  0.0000E+00      0.00
   90.00    103.00     -4.95  -999.99    -4.95      0.0000      0.00 LINEAR  1.0282E+00     -3.50  0.0000E+00      0.00
   90.00    104.00    -10.93  -999.99   -10.93      0.0000      0.00 LINEAR  5.1647E-01      7.59  0.0000E+00      0.00
   90.00    105.00    -14.15  -999.99   -14.15      0.0000      0.00 LINEAR  3.5631E-01     67.65  0.0000E+00      0.00
   90.00    106.00     -8.74  -999.99    -8.74      0.0000      0.00 LINEAR  6.6447E-01     97.06  0.0000E+00      0.00
   90.00    107.00     -5.13  -999.99    -5.13      0.0000      0.00 LINEAR  1.0069E+00     98.03  0.0000E+00      0.00
   90.00    108.00     -2.97  -999.99    -2.97      0.0000      0.00 LINEAR  1.2911E+00     92.77  0.0000E+00      0.00
   90.00    109.00     -1.65  -999.99    -1.65      0.0000      0.00 LINEAR  1.5026E+00     85.50  0.0000E+00      0.00
   90.00    110.00     -0.90  -999.99    -0.90      0.0000      0.00 LINEAR  1.6393E+00     77.44  0.0000E+00      0.00
   90.00    111.00     -0.56  -999.99    -0.56      0.0000      0.00 LINEAR  1.7033E+00     69.07  0.0000E+00      0.00
   90.00    112.00     -0.58  -999.99    -0.58      0.0000      0.00 LINEAR  1.6995E+00     60.66  0.0000E+00      0.00
   90.00    113.00     -0.92  -999.99    -0.92      0.0000      0.00 LINEAR  1.6348E+00     52.37  0.0000E+00      0.00
   90.00    114.00     -1.57  -999.99    -1.57      0.0000      0.00 LINEAR  1.5174E+00     44.40  0.0000E+00      0.00
   90.00    115.00     -2.54  -999.99    -2.54      0.0000      0.00 LINEAR  1.3571E+00     36.95  0.0000E+00      0.00
   90.00    116.00     -3.87  -999.99    -3.87      0.0000      0.00 LINEAR  1.1644E+00     30.36  0.0000E+00      0.00
   90.00    117.00     -5.63  -999.99    -5.63      0.0000      0.00 LINEAR  9.5088E-01     25.27  0.0000E+00      0.00
   90.00    118.00     -7.92  -999.99    -7.92      0.0000      0.00 LINEAR  7.3052E-01     22.97  0.0000E+00      0.00
   90.00    119.00    -10.81  -999.99   -10.81      0.0000      0.00 LINEAR  5.2341E-01     26.56  0.0000E+00      0.00
   90.00    120.00    -13.83  -999.99   -13.83      0.0000      0.00 LINEAR  3.6986E-01     42.73  0.0000E+00      0.00
   90.00    121.00    -14.50  -999.99   -14.50      0.0000      0.00 LINEAR  3.4253E-01     72.20  0.0000E+00      0.00
   90.00    122.00    -12.24  -999.99   -12.24      0.0000      0.00 LINEAR  4.4414E-01     92.19  0.0000E+00      0.00
   90.00    123.00     -9.76  -999.99    -9.76      0.0000      0.00 LINEAR  5.9096E-01     98.21  0.0000E+00      0.00
   90.00    124.00     -7.85  -999.99    -7.85      0.0000      0.00 LINEAR  7.3587E-01     97.48  0.0000E+00      0.00
   90.00    125.00     -6.48  -999.99    -6.48      0.0000      0.00 LINEAR  8.6160E-01     93.73  0.0000E+00      0.00
   90.00    126.00     -5.53  -999.99    -5.53      0.0000      0.00 LINEAR  9.6114E-01     88.52  0.0000E+00      0.00
   90.00    127.00     -4.92  -999.99    -4.92      0.0000      0.00 LINEAR  1.0316E+00     82.58  0.0000E+00      0.00
   90.00    128.00     -4.58  -999.99    -4.58      0.0000      0.00 LINEAR  1.0723E+00     76.27  0.0000E+00      0.00
   90.00    129.00     -4.49  -999.99    -4.49      0.0000      0.00 LINEAR  1.0839E+00     69.84  0.0000E+00      0.00
   90.00    130.00     -4.62  -999.99    -4.62      0.0000      0.00 LINEAR  1.0682E+00     63.45  0.0000E+00      0.00
   90.00    131.00     -4.95  -999.99    -4.95      0.0000      0.00 LINEAR  1.0278E+00     57.23  0.0000E+00      0.00
   90.00    132.00     -5.49  -999.99    -5.49      0.0000      0.00 LINEAR  9.6593E-01     51.31  0.0000E+00      0.00
   90.00    133.00     -6.24  -999.99    -6.24      0.0000      0.00 LINEAR  8.8617E-01     45.85  0.0000E+00      0.00
   90.00    134.00     -7.21  -999.99    -7.21      0.0000      0.00 LINEAR  7.9263E-01     41.08  0.0000E+00      0.00
   90.00    135.00     -8.42  -999.99    -8.42      0.0000      0.00 LINEAR  6.8976E-01     37.32  0.0000E+00      0.00
   90.00    136.00     -9.88  -999.99    -9.88      0.0000      0.00 LINEAR  5.8263E-01     35.10  0.0000E+00      0.00
   90.00    137.00    -11.61  -999.99   -11.61      0.0000      0.00 LINEAR  4.7736E-01     35.35  0.0000E+00      0.00
   90.00    138.00    -13.54  -999.99   -13.54      0.0000      0.00 LINEAR  3.8244E-01     39.59  0.0000E+00      0.00
   90.00    139.00    -15.34  -999.99   -15.34      0.0000      0.00 LINEAR  3.1072E-01     49.80  0.0000E+00      0.00
   90.00    140.00    -16.28  -999.99   -16.28      0.0000      0.00 LINEAR  2.7885E-01     65.92  0.0000E+00      0.00
   90.00    141.00    -15.82  -999.99   -15.82      0.0000      0.00 LINEAR  2.9423E-01     82.19  0.0000E+00      0.00
   90.00    142.00    -14.47  -999.99   -14.47      0.0000      0.00 LINEAR  3.4345E-01     92.82  0.0000E+00      0.00
   90.00    143.00    -12.99  -999.99   -12.99      0.0000      0.00 LINEAR  4.0735E-01     97.70  0.0000E+00      0.00
   90.00    144.00    -11.68  -999.99   -11.68      0.0000      0.00 LINEAR  4.7345E-01     98.81  0.0000E+00      0.00
   90.00    145.00    -10.62  -999.99   -10.62      0.0000      0.00 LINEAR  5.3529E-01     97.68  0.0000E+00      0.00
   90.00    146.00     -9.78  -999.99    -9.78      0.0000      0.00 LINEAR  5.8959E-01     95.21  0.0000E+00      0.00
   90.00    147.00     -9.14  -999.99    -9.14      0.0000      0.00 LINEAR  6.3473E-01     91.93  0.0000E+00      0.00
   90.00    148.00     -8.67  -999.99    -8.67      0.0000      0.00 LINEAR  6.7003E-01     88.16  0.0000E+00      0.00
   90.00    149.00     -8.35  -999.99    -8.35      0.0000      0.00 LINEAR  6.9538E-01     84.09  0.0000E+00      0.00
   90.00    150.00     -8.15  -999.99    -8.15      0.0000      0.00 LINEAR  7.1102E-01     79.85  0.0000E+00      0.00
   90.00    151.00     -8.07  -999.99    -8.07      0.0000      0.00 LINEAR  7.1747E-01     75.52  0.0000E+00      0.00
   90.00    152.00     -8.10  -999.99    -8.10      0.0000      0.00 LINEAR  7.1540E-01     71.17  0.0000E+00      0.00
   90.00    153.00     -8.22  -999.99    -8.22      0.0000      0.00 LINEAR  7.0562E-01     66.83  0.0000E+00      0.00
   90.00    154.00     -8.43  -999.99    -8.43      0.0000      0.00 LINEAR  6.8900E-01     62.55  0.0000E+00      0.00
   90.00    155.00     -8.71  -999.99    -8.71      0.0000      0.00 LINEAR  6.6645E-01     58.33  0.0000E+00      0.00
   90.00    156.00     -9.08  -999.99    -9.08      0.0000      0.00 LINEAR  6.3888E-01     54.21  0.0000E+00      0.00
   90.00    157.00     -9.52  -999.99    -9.52      0.0000      0.00 LINEAR  6.0719E-01     50.19  0.0000E+00      0.00
   90.00    158.00    -10.04  -999.99   -10.04      0.0000      0.00 LINEAR  5.7225E-01     46.30  0.0000E+00      0.00
   90.00    159.00    -10.62  -999.99   -10.62      0.0000      0.00 LINEAR  5.3487E-01     42.53  0.0000E+00      0.00
   90.00    160.00    -11.28  -999.99   -11.28      0.0000      0.00 LINEAR  4.9580E-01     38.90  0.0000E+00      0.00
   90.00    161.00    -12.02  -999.99   -12.02      0.0000      0.00 LINEAR  4.5575E-01     35.41  0.0000E+00      0.00
   90.00    162.00    -12.82  -999.99   -12.82      0.0000      0.00 LINEAR  4.1534E-01     32.08  0.0000E+00      0.00
   90.00    163.00    -13.71  -999.99   -13.71      0.0000      0.00 LINEAR  3.7512E-01     28.90  0.0000E+00      0.00
   90.00    164.00    -14.67  -999.99   -14.67      0.0000      0.00 LINEAR  3.3559E-01     25.89  0.0000E+00      0.00
   90.00    165.00    -15.73  -999.99   -15.73      0.0000      0.00 LINEAR  2.9717E-01     23.04  0.0000E+00      0.00
   90.00    166.00    -16.88  -999.99   -16.88      0.0000      0.00 LINEAR  2.6021E-01     20.35  0.0000E+00      0.00
   90.00    167.00    -18.14  -999.99   -18.14      0.0000      0.00 LINEAR  2.2503E-01     17.84  0.0000E+00      0.00
   90.00    168.00    -19.53  -999.99   -19.53      0.0000      0.00 LINEAR  1.9186E-01     15.50  0.0000E+00      0.00
   90.00    169.00    -21.06  -999.99   -21.06      0.0000      0.00 LINEAR  1.6092E-01     13.35  0.0000E+00      0.00
   90.00    170.00    -22.75  -999.99   -22.75      0.0000      0.00 LINEAR  1.3236E-01     11.37  0.0000E+00      0.00
   90.00    171.00    -24.66  -999.99   -24.66      0.0000      0.00 LINEAR  1.0630E-01      9.57  0.0000E+00      0.00
   90.00    172.00    -26.82  -999.99   -26.82      0.0000      0.00 LINEAR  8.2842E-02      7.96  0.0000E+00      0.00
   90.00    173.00    -29.33  -999.99   -29.33      0.0000      0.00 LINEAR  6.2051E-02      6.53  0.0000E+00      0.00
   90.00    174.00    -32.33  -999.99   -32.33      0.0000      0.00 LINEAR  4.3976E-02      5.29  0.0000E+00      0.00
   90.00    175.00    -36.05  -999.99   -36.05      0.0000      0.00 LINEAR  2.8651E-02      4.24  0.0000E+00      0.00
   90.00    176.00    -41.06  -999.99   -41.06      0.0000      0.00 LINEAR  1.6095E-02      3.38  0.0000E+00      0.00
   90.00    177.00    -49.17  -999.99   -49.17      0.0000      0.00 LINEAR  6.3227E-03      2.71  0.0000E+00      0.00
   90.00    178.00    -68.79  -999.99   -68.79      0.0000      0.00 LINEAR  6.6080E-04   -177.77  0.0000E+00      0.00
   90.00    179.00    -51.47  -999.99   -51.47      0.0000      0.00 LINEAR  4.8518E-03   -178.06  0.0000E+00      0.00
   90.00    180.00    -49.27  -999.99   -49.27      0.0000      0.00 LINEAR  6.2489E-03   -178.16  0.0000E+00      0.00
   90.00    181.00    -51.47  -999.99   -51.47      0.0000      0.00 LINEAR  4.8518E-03   -178.06  0.0000E+00      0.00
   90.00    182.00    -68.79  -999.99   -68.79      0.0000      0.00 LINEAR  6.6080E-04   -177.77  0.0000E+00      0.00
   90.00    183.00    -49.17  -999.99   -49.17      0.0000      0.00 LINEAR  6.3227E-03      2.71  0.0000E+00      0.00
   90.00    184.00    -41.06  -999.99   -41.06      0.0000      0.00 LINEAR  1.6095E-02      3.38  0.0000E+00      0.00
   90.00    185.00    -36.05  -999.99   -36.05      0.0000      0.00 LINEAR  2.8651E-02      4.24  0.0000E+00      0.00
   90.00    186.00    -32.33  -999.99   -32.33      0.0000      0.00 LINEAR  4.3976E-02      5.29  0.0000E+00      0.00
   90.00    187.00    -29.33  -999.99   -29.33      0.0000      0.00 LINEAR  6.2051E-02      6.53  0.0000E+00      0.00
   90.00    188.00    -26.82  -999.99   -26.82      0.0000      0.00 LINEAR  8.2842E-02      7.96  0.0000E+00      0.00
   90.00    189.00    -24.66  -999.99   -24.66      0.0000      0.00 LINEAR  1.0630E-01      9.57  0.0000E+00      0.00
   90.00    190.00    -22.75  -999.99   -22.75      0.0000      0.00 LINEAR  1.3236E-01     11.37  0.0000E+00      0.00
   90.00    191.00    -21.06  -999.99   -21.06      0.0000      0.00 LINEAR  1.6092E-01     13.35  0.0000E+00      0.00
   90.00    192.00    -19.53  -999.99   -19.53      0.0000      0.00 LINEAR  1.9186E-01     15.50  0.0000E+00      0.00
   90.00    193.00    -18.14  -999.99   -18.14      0.0000      0.00 LINEAR  2.2503E-01     17.84  0.0000E+00      0.00
   90.00    194.00    -16.88  -999.99   -16.88      0.0000      0.00 LINEAR  2.6021E-01     20.35  0.0000E+00      0.00
   90.00    195.00    -15.73  -999.99   -15.73      0.0000      0.00 LINEAR  2.9717E-01     23.04  0.0000E+00      0.00
   90.00    196.00    -14.67  -999.99   -14.67      0.0000      0.00 LINEAR  3.3559E-01     25.89  0.0000E+00      0.00
   90.00    197.00    -13.71  -999.99   -13.71      0.0000      0.00 LINEAR  3.7512E-01     28.90  0.0000E+00      0.00
   90.00    198.00    -12.82  -999.99   -12.82      0.0000      0.00 LINEAR  4.1534E-01     32.08  0.0000E+00      0.00
   90.00    199.00    -12.02  -999.99   -12.02      0.0000      0.00 LINEAR  4.5575E-01     35.41  0.0000E+00      0.00
   90.00    200.00    -11.28  -999.99   -11.28      0.0000      0.00 LINEAR  4.9580E-01     38.90  0.0000E+00      0.00
   90.00    201.00    -10.62  -999.99   -10.62      0.0000      0.00 LINEAR  5.3487E-01     42.53  0.0000E+00      0.00
   90.00    202.00    -10.04  -999.99   -10.04      0.0000      0.00 LINEAR  5.7225E-01     46.30  0.0000E+00      0.00
   90.00    203.00     -9.52  -999.99    -9.52      0.0000      0.00 LINEAR  6.0719E-01     50.19  0.0000E+00      0.00
   90.00    204.00     -9.08  -999.99    -9.08      0.0000      0.00 LINEAR  6.3888E-01     54.21  0.0000E+00      0.00
   90.00    205.00     -8.71  -999.99    -8.71      0.0000      0.00 LINEAR  6.6645E-01     58.33  0.0000E+00      0.00
   90.00    206.00     -8.43  -999.99    -8.43      0.0000      0.00 LINEAR  6.8900E-01     62.55  0.0000E+00      0.00
   90.00    207.00     -8.22  -999.99    -8.22      0.0000      0.00 LINEAR  7.0562E-01     66.83  0.0000E+00      0.00
   90.00    208.00     -8.10  -999.99    -8.10      0.0000      0.00 LINEAR  7.1540E-01     71.17  0.0000E+00      0.00
   90.00    209.00     -8.07  -999.99    -8.07      0.0000      0.00 LINEAR  7.1747E-01     75.52  0.0000E+00      0.00
   90.00    210.00     -8.15  -999.99    -8.15      0.0000      0.00 LINEAR  7.1102E-01     79.85  0.0000E+00      0.00
   90.00    211.00     -8.35  -999.99    -8.35      0.0000      0.00 LINEAR  6.9538E-01     84.09  0.0000E+00      0.00
   90.00    212.00     -8.67  -999.99    -8.67      0.0000      0.00 LINEAR  6.7003E-01     88.16  0.0000E+00      0.00
   90.00    213.00     -9.14  -999.99    -9.14      0.0000      0.00 LINEAR  6.3473E-01     91.93  0.0000E+00      0.00
   90.00    214.00     -9.78  -999.99    -9.78      0.0000      0.00 LINEAR  5.8959E-01     95.21  0.0000E+00      0.00
   90.00    215.00    -10.62  -999.99   -10.62      0.0000      0.00 LINEAR  5.3529E-01     97.68  0.0000E+00      0.00
   90.00    216.00    -11.68  -999.99   -11.68      0.0000      0.00 LINEAR  4.7345E-01     98.81  0.0000E+00      0.00
   90.00    217.00    -12.99  -999.99   -12.99      0.0000      0.00 LINEAR  4.0735E-01     97.70  0.0000E+00      0.00
   90.00    218.00    -14.47  -999.99   -14.47      0.0000      0.00 LINEAR  3.4345E-01     92.82  0.0000E+00      0.00
   90.00    219.00    -15.82  -999.99   -15.82      0.0000      0.00 LINEAR  2.9423E-01     82.19  0.0000E+00      0.00
   90.00    220.00    -16.28  -999.99   -16.28      0.0000      0.00 LINEAR  2.7885E-01     65.92  0.0000E+00      0.00
   90.00    221.00    -15.34  -999.99   -15.34      0.0000      0.00 LINEAR  3.1072E-01     49.80  0.0000E+00      0.00
   90.00    222.00    -13.54  -999.99   -13.54      0.0000      0.00 LINEAR  3.8244E-01     39.59  0.0000E+00      0.00
   90.00    223.00    -11.61  -999.99   -11.61      0.0000      0.00 LINEAR  4.7736E-01     35.35  0.0000E+00      0.00
   90.00    224.00     -9.88  -999.99    -9.88      0.0000      0.00 LINEAR  5.8263E-01     35.10  0.0000E+00      0.00
   90.00    225.00     -8.42  -999.99    -8.42      0.0000      0.00 LINEAR  6.8976E-01     37.32  0.0000E+00      0.00
   90.00    226.00     -7.21  -999.99    -7.21      0.0000      0.00 LINEAR  7.9263E-01     41.08  0.0000E+00      0.00
   90.00    227.00     -6.24  -999.99    -6.24      0.0000      0.00 LINEAR  8.8617E-01     45.85  0.0000E+00      0.00
   90.00    228.00     -5.49  -999.99    -5.49      0.0000      0.00 LINEAR  9.6593E-01     51.31  0.0000E+00      0.00
   90.00    229.00     -4.95  -999.99    -4.95      0.0000      0.00 LINEAR  1.0278E+00     57.23  0.0000E+00      0.00
   90.00    230.00     -4.62  -999.99    -4.62      0.0000      0.00 LINEAR  1.0682E+00     63.45  0.0000E+00      0.00
   90.00    231.00     -4.49  -999.99    -4.49      0.0000      0.00 LINEAR  1.0839E+00     69.84  0.0000E+00      0.00
   90.00    232.00     -4.58  -999.99    -4.58      0.0000      0.00 LINEAR  1.0723E+00     76.27  0.0000E+00      0.00
   90.00    233.00     -4.92  -999.99    -4.92      0.0000      0.00 LINEAR  1.0316E+00     82.58  0.0000E+00      0.00
   90.00    234.00     -5.53  -999.99    -5.53      0.0000      0.00 LINEAR  9.6114E-01     88.52  0.0000E+00      0.00
   90.00    235.00     -6.48  -999.99    -6.48      0.0000      0.00 LINEAR  8.6160E-01     93.73  0.0000E+00      0.00
   90.00    236.00     -7.85  -999.99    -7.85      0.0000      0.00 LINEAR  7.3587E-01     97.48  0.0000E+00      0.00
   90.00    237.00     -9.76  -999.99    -9.76      0.0000      0.00 LINEAR  5.9096E-01     98.21  0.0000E+00      0.00
   90.00    238.00    -12.24  -999.99   -12.24      0.0000      0.00 LINEAR  4.4414E-01     92.19  0.0000E+00      0.00
   90.00    239.00    -14.50  -999.99   -14.50      0.0000      0.00 LINEAR  3.4253E-01     72.20  0.0000E+00      0.00
   90.00    240.00    -13.83  -999.99   -13.83      0.0000      0.00 LINEAR  3.6986E-01     42.73  0.0000E+00      0.00
   90.00    241.00    -10.81  -999.99   -10.81      0.0000      0.00 LINEAR  5.2341E-01     26.56  0.0000E+00      0.00
   90.00    242.00     -7.92  -999.99    -7.92      0.0000      0.00 LINEAR  7.3052E-01     22.97  0.0000E+00      0.00
   90.00    243.00     -5.63  -999.99    -5.63      0.0000      0.00 LINEAR  9.5088E-01     25.27  0.0000E+00      0.00
   90.00    244.00     -3.87  -999.99    -3.87      0.0000      0.00 LINEAR  1.1644E+00     30.36  0.0000E+00      0.00
   90.00    245.00     -2.54  -999.99    -2.54      0.0000      0.00 LINEAR  1.3571E+00     36.95  0.0000E+00      0.00
   90.00    246.00     -1.57  -999.99    -1.57      0.0000      0.00 LINEAR  1.5174E+00     44.40  0.0000E+00      0.00
   90.00    247.00     -0.92  -999.99    -0.92      0.0000      0.00 LINEAR  1.6348E+00     52.37  0.0000E+00      0.00
   90.00    248.00     -0.58  -999.99    -0.58      0.0000      0.00 LINEAR  1.6995E+00     60.66  0.0000E+00      0.00
   90.00    249.00     -0.56  -999.99    -0.56      0.0000      0.00 LINEAR  1.7033E+00     69.07  0.0000E+00      0.00
   90.00    250.00     -0.90  -999.99    -0.90      0.0000      0.00 LINEAR  1.6393E+00     77.44  0.0000E+00      0.00
   90.00    251.00     -1.65  -999.99    -1.65      0.0000      0.00 LINEAR  1.5026E+00     85.50  0.0000E+00      0.00
   90.00    252.00     -2.97  -999.99    -2.97      0.0000      0.00 LINEAR  1.2911E+00     92.77  0.0000E+00      0.00
   90.00    253.00     -5.13  -999.99    -5.13      0.0000      0.00 LINEAR  1.0069E+00     98.03  0.0000E+00      0.00
   90.00    254.00     -8.74  -999.99    -8.74      0.0000      0.00 LINEAR  6.6447E-01     97.06  0.0000E+00      0.00
   90.00    255.00    -14.15  -999.99   -14.15      0.0000      0.00 LINEAR  3.5631E-01     67.65  0.0000E+00      0.00
   90.00    256.00    -10.93  -999.99   -10.93      0.0000      0.00 LINEAR  5.1647E-01      7.59  0.0000E+00      0.00
   90.00    257.00     -4.95  -999.99    -4.95      0.0000      0.00 LINEAR  1.0282E+00     -3.50  0.0000E+00      0.00
   90.00    258.00     -0.92  -999.99    -0.92      0.0000      0.00 LINEAR  1.6344E+00     -0.31  0.0000E+00      0.00
   90.00    259.00      2.00  -999.99     2.00      0.0000      0.00 LINEAR  2.2879E+00      6.73  0.0000E+00      0.00
   90.00    260.00      4.26  -999.99     4.26      0.0000      0.00 LINEAR  2.9670E+00     15.32  0.0000E+00      0.00
   90.00    261.00      6.06  -999.99     6.06      0.0000      0.00 LINEAR  3.6535E+00     24.70  0.0000E+00      0.00
   90.00    262.00      7.54  -999.99     7.54      0.0000      0.00 LINEAR  4.3296E+00     34.54  0.0000E+00      0.00
   90.00    263.00      8.75  -999.99     8.75      0.0000      0.00 LINEAR  4.9777E+00     44.68  0.0000E+00      0.00
   90.00    264.00      9.74  -999.99     9.74      0.0000      0.00 LINEAR  5.5807E+00     55.04  0.0000E+00      0.00
   90.00    265.00     10.55  -999.99    10.55      0.0000      0.00 LINEAR  6.1222E+00     65.56  0.0000E+00      0.00
   90.00    266.00     11.18  -999.99    11.18      0.0000      0.00 LINEAR  6.5875E+00     76.20  0.0000E+00      0.00
   90.00    267.00     11.67  -999.99    11.67      0.0000      0.00 LINEAR  6.9637E+00     86.95  0.0000E+00      0.00
   90.00    268.00     12.01  -999.99    12.01      0.0000      0.00 LINEAR  7.2402E+00     97.78  0.0000E+00      0.00
   90.00    269.00     12.21  -999.99    12.21      0.0000      0.00 LINEAR  7.4094E+00    108.69  0.0000E+00      0.00
   90.00    270.00     12.27  -999.99    12.27      0.0000      0.00 LINEAR  7.4663E+00    119.66  0.0000E+00      0.00
   90.00    271.00     12.21  -999.99    12.21      0.0000      0.00 LINEAR  7.4094E+00    130.69  0.0000E+00      0.00
   90.00    272.00     12.01  -999.99    12.01      0.0000      0.00 LINEAR  7.2402E+00    141.79  0.0000E+00      0.00
   90.00    273.00     11.67  -999.99    11.67      0.0000      0.00 LINEAR  6.9637E+00    152.94  0.0000E+00      0.00
   90.00    274.00     11.18  -999.99    11.18      0.0000      0.00 LINEAR  6.5875E+00    164.16  0.0000E+00      0.00
   90.00    275.00     10.55  -999.99    10.55      0.0000      0.00 LINEAR  6.1222E+00    175.45  0.0000E+00      0.00
   90.00    276.00      9.74  -999.99     9.74      0.0000      0.00 LINEAR  5.5807E+00   -173.16  0.0000E+00      0.00
   90.00    277.00      8.75  -999.99     8.75      0.0000      0.00 LINEAR  4.9777E+00   -161.66  0.0000E+00      0.00
   90.00    278.00      7.54  -999.99     7.54      0.0000      0.00 LINEAR  4.3296E+00   -149.99  0.0000E+00      0.00
   90.00    279.00      6.06  -999.99     6.06      0.0000      0.00 LINEAR  3.6535E+00   -138.06  0.0000E+00      0.00
   90.00    280.00      4.26  -999.99     4.26      0.0000      0.00 LINEAR  2.9670E+00   -125.74  0.0000E+00      0.00
   90.00    281.00      2.00  -999.99     2.00      0.0000      0.00 LINEAR  2.2879E+00   -112.69  0.0000E+00      0.00
   90.00    282.00     -0.92  -999.99    -0.92      0.0000      0.00 LINEAR  1.6344E+00    -98.17  0.0000E+00      0.00
   90.00    283.00     -4.95  -999.99    -4.95      0.0000      0.00 LINEAR  1.0282E+00    -79.87  0.0000E+00      0.00
   90.00    284.00    -10.93  -999.99   -10.93      0.0000      0.00 LINEAR  5.1647E-01    -47.38  0.0000E+00      0.00
   90.00    285.00    -14.15  -999.99   -14.15      0.0000      0.00 LINEAR  3.5631E-01     33.98  0.0000E+00      0.00
   90.00    286.00     -8.74  -999.99    -8.74      0.0000      0.00 LINEAR  6.6447E-01     84.60  0.0000E+00      0.00
   90.00    287.00     -5.13  -999.99    -5.13      0.0000      0.00 LINEAR  1.0069E+00    106.67  0.0000E+00      0.00
   90.00    288.00     -2.97  -999.99    -2.97      0.0000      0.00 LINEAR  1.2911E+00    122.40  0.0000E+00      0.00
   90.00    289.00     -1.65  -999.99    -1.65      0.0000      0.00 LINEAR  1.5026E+00    136.00  0.0000E+00      0.00
   90.00    290.00     -0.90  -999.99    -0.90      0.0000      0.00 LINEAR  1.6393E+00    148.68  0.0000E+00      0.00
   90.00    291.00     -0.56  -999.99    -0.56      0.0000      0.00 LINEAR  1.7033E+00    160.92  0.0000E+00      0.00
   90.00    292.00     -0.58  -999.99    -0.58      0.0000      0.00 LINEAR  1.6995E+00    172.98  0.0000E+00      0.00
   90.00    293.00     -0.92  -999.99    -0.92      0.0000      0.00 LINEAR  1.6348E+00   -174.97  0.0000E+00      0.00
   90.00    294.00     -1.57  -999.99    -1.57      0.0000      0.00 LINEAR  1.5174E+00   -162.77  0.0000E+00      0.00
   90.00    295.00     -2.54  -999.99    -2.54      0.0000      0.00 LINEAR  1.3571E+00   -150.19  0.0000E+00      0.00
   90.00    296.00     -3.87  -999.99    -3.87      0.0000      0.00 LINEAR  1.1644E+00   -136.91  0.0000E+00      0.00
   90.00    297.00     -5.63  -999.99    -5.63      0.0000      0.00 LINEAR  9.5088E-01   -122.31  0.0000E+00      0.00
   90.00    298.00     -7.92  -999.99    -7.92      0.0000      0.00 LINEAR  7.3052E-01   -105.09  0.0000E+00      0.00
   90.00    299.00    -10.81  -999.99   -10.81      0.0000      0.00 LINEAR  5.2341E-01    -82.16  0.0000E+00      0.00
   90.00    300.00    -13.83  -999.99   -13.83      0.0000      0.00 LINEAR  3.6986E-01    -46.84  0.0000E+00      0.00
   90.00    301.00    -14.50  -999.99   -14.50      0.0000      0.00 LINEAR  3.4253E-01      1.59  0.0000E+00      0.00
   90.00    302.00    -12.24  -999.99   -12.24      0.0000      0.00 LINEAR  4.4414E-01     40.34  0.0000E+00      0.00
   90.00    303.00     -9.76  -999.99    -9.76      0.0000      0.00 LINEAR  5.9096E-01     64.92  0.0000E+00      0.00
   90.00    304.00     -7.85  -999.99    -7.85      0.0000      0.00 LINEAR  7.3587E-01     82.54  0.0000E+00      0.00
   90.00    305.00     -6.48  -999.99    -6.48      0.0000      0.00 LINEAR  8.6160E-01     96.93  0.0000E+00      0.00
   90.00    306.00     -5.53  -999.99    -5.53      0.0000      0.00 LINEAR  9.6114E-01    109.64  0.0000E+00      0.00
   90.00    307.00     -4.92  -999.99    -4.92      0.0000      0.00 LINEAR  1.0316E+00    121.38  0.0000E+00      0.00
   90.00    308.00     -4.58  -999.99    -4.58      0.0000      0.00 LINEAR  1.0723E+00    132.54  0.0000E+00      0.00
   90.00    309.00     -4.49  -999.99    -4.49      0.0000      0.00 LINEAR  1.0839E+00    143.33  0.0000E+00      0.00
   90.00    310.00     -4.62  -999.99    -4.62      0.0000      0.00 LINEAR  1.0682E+00    153.92  0.0000E+00      0.00
   90.00    311.00     -4.95  -999.99    -4.95      0.0000      0.00 LINEAR  1.0278E+00    164.43  0.0000E+00      0.00
   90.00    312.00     -5.49  -999.99    -5.49      0.0000      0.00 LINEAR  9.6593E-01    174.99  0.0000E+00      0.00
   90.00    313.00     -6.24  -999.99    -6.24      0.0000      0.00 LINEAR  8.8617E-01   -174.24  0.0000E+00      0.00
   90.00    314.00     -7.21  -999.99    -7.21      0.0000      0.00 LINEAR  7.9263E-01   -163.05  0.0000E+00      0.00
   90.00    315.00     -8.42  -999.99    -8.42      0.0000      0.00 LINEAR  6.8976E-01   -151.12  0.0000E+00      0.00
   90.00    316.00     -9.88  -999.99    -9.88      0.0000      0.00 LINEAR  5.8263E-01   -137.91  0.0000E+00      0.00
   90.00    317.00    -11.61  -999.99   -11.61      0.0000      0.00 LINEAR  4.7736E-01   -122.51  0.0000E+00      0.00
   90.00    318.00    -13.54  -999.99   -13.54      0.0000      0.00 LINEAR  3.8244E-01   -103.41  0.0000E+00      0.00
   90.00    319.00    -15.34  -999.99   -15.34      0.0000      0.00 LINEAR  3.1072E-01    -78.61  0.0000E+00      0.00
   90.00    320.00    -16.28  -999.99   -16.28      0.0000      0.00 LINEAR  2.7885E-01    -48.21  0.0000E+00      0.00
   90.00    321.00    -15.82  -999.99   -15.82      0.0000      0.00 LINEAR  2.9423E-01    -17.94  0.0000E+00      0.00
   90.00    322.00    -14.47  -999.99   -14.47      0.0000      0.00 LINEAR  3.4345E-01      6.39  0.0000E+00      0.00
   90.00    323.00    -12.99  -999.99   -12.99      0.0000      0.00 LINEAR  4.0735E-01     24.67  0.0000E+00      0.00
   90.00    324.00    -11.68  -999.99   -11.68      0.0000      0.00 LINEAR  4.7345E-01     38.87  0.0000E+00      0.00
   90.00    325.00    -10.62  -999.99   -10.62      0.0000      0.00 LINEAR  5.3529E-01     50.51  0.0000E+00      0.00
   90.00    326.00     -9.78  -999.99    -9.78      0.0000      0.00 LINEAR  5.8959E-01     60.51  0.0000E+00      0.00
   90.00    327.00     -9.14  -999.99    -9.14      0.0000      0.00 LINEAR  6.3473E-01     69.38  0.0000E+00      0.00
   90.00    328.00     -8.67  -999.99    -8.67      0.0000      0.00 LINEAR  6.7003E-01     77.43  0.0000E+00      0.00
   90.00    329.00     -8.35  -999.99    -8.35      0.0000      0.00 LINEAR  6.9538E-01     84.86  0.0000E+00      0.00
   90.00    330.00     -8.15  -999.99    -8.15      0.0000      0.00 LINEAR  7.1102E-01     91.79  0.0000E+00      0.00
   90.00    331.00     -8.07  -999.99    -8.07      0.0000      0.00 LINEAR  7.1747E-01     98.30  0.0000E+00      0.00
   90.00    332.00     -8.10  -999.99    -8.10      0.0000      0.00 LINEAR  7.1540E-01    104.44  0.0000E+00      0.00
   90.00    333.00     -8.22  -999.99    -8.22      0.0000      0.00 LINEAR  7.0562E-01    110.27  0.0000E+00      0.00
   90.00    334.00     -8.43  -999.99    -8.43      0.0000      0.00 LINEAR  6.8900E-01    115.80  0.0000E+00      0.00
   90.00    335.00     -8.71  -999.99    -8.71      0.0000      0.00 LINEAR  6.6645E-01    121.06  0.0000E+00      0.00
   90.00    336.00     -9.08  -999.99    -9.08      0.0000      0.00 LINEAR  6.3888E-01    126.06  0.0000E+00      0.00
   90.00    337.00     -9.52  -999.99    -9.52      0.0000      0.00 LINEAR  6.0719E-01    130.82  0.0000E+00      0.00
   90.00    338.00    -10.04  -999.99   -10.04      0.0000      0.00 LINEAR  5.7225E-01    135.34  0.0000E+00      0.00
   90.00    339.00    -10.62  -999.99   -10.62      0.0000      0.00 LINEAR  5.3487E-01    139.64  0.0000E+00      0.00
   90.00    340.00    -11.28  -999.99   -11.28      0.0000      0.00 LINEAR  4.9580E-01    143.72  0.0000E+00      0.00
   90.00    341.00    -12.02  -999.99   -12.02      0.0000      0.00 LINEAR  4.5575E-01    147.58  0.0000E+00      0.00
   90.00    342.00    -12.82  -999.99   -12.82      0.0000      0.00 LINEAR  4.1534E-01    151.23  0.0000E+00      0.00
   90.00    343.00    -13.71  -999.99   -13.71      0.0000      0.00 LINEAR  3.7512E-01    154.67  0.0000E+00      0.00
   90.00    344.00    -14.67  -999.99   -14.67      0.0000      0.00 LINEAR  3.3559E-01    157.90  0.0000E+00      0.00
   90.00    345.00    -15.73  -999.99   -15.73      0.0000      0.00 LINEAR  2.9717E-01    160.93  0.0000E+00      0.00
   90.00    346.00    -16.88  -999.99   -16.88      0.0000      0.00 LINEAR  2.6021E-01    163.76  0.0000E+00      0.00
   90.00    347.00    -18.14  -999.99   -18.14      0.0000      0.00 LINEAR  2.2503E-01    166.38  0.0000E+00      0.00
   90.00    348.00    -19.53  -999.99   -19.53      0.0000      0.00 LINEAR  1.9186E-01    168.81  0.0000E+00      0.00
   90.00    349.00    -21.06  -999.99   -21.06      0.0000      0.00 LINEAR  1.6092E-01    171.04  0.0000E+00      0.00
   90.00    350.00    -22.75  -999.99   -22.75      0.0000      0.00 LINEAR  1.3236E-01    173.07  0.0000E+00      0.00
   90.00    351.00    -24.66  -999.99   -24.66      0.0000      0.00 LINEAR  1.0630E-01    174.91  0.0000E+00      0.00
   90.00    352.00    -26.82  -999.99   -26.82      0.0000      0.00 LINEAR  8.2842E-02    176.55  0.0000E+00      0.00
   90.00    353.00    -29.33  -999.99   -29.33      0.0000      0.00 LINEAR  6.2051E-02    177.99  0.0000E+00      0.00
   90.00    354.00    -32.33  -999.99   -32.33      0.0000      0.00 LINEAR  4.3976E-02    179.24  0.0000E+00      0.00
   90.00    355.00    -36.05  -999.99   -36.05      0.0000      0.00 LINEAR  2.8651E-02   -179.70  0.0000E+00      0.00
   90.00    356.00    -41.06  -999.99   -41.06      0.0000      0.00 LINEAR  1.6095E-02   -178.83  0.0000E+00      0.00
   90.00    357.00    -49.17  -999.99   -49.17      0.0000      0.00 LINEAR  6.3227E-03   -178.16  0.0000E+00      0.00
   90.00    358.00    -68.79  -999.99   -68.79      0.0000      0.00 LINEAR  6.6080E-04      2.32  0.0000E+00      0.00
   90.00    359.00    -51.47  -999.99   -51.47      0.0000      0.00 LINEAR  4.8518E-03      2.61  0.0000E+00      0.00
   90.00    360.00    -49.27  -999.99   -49.27      0.0000      0.00 LINEAR  6.2489E-03      2.70  0.0000E+00      0.00








*****  DATA CARD N0.  13 EN   0     1   361  1000 9.00000E+001 0.00000E+000 0.00000E+000 1.00000E+000 0.00000E+000 0.00000E+000

  TOTAL RUN TIME: 15 msec