


                                __________________________________________
                               |                                          |
                               | NUMERICAL ELECTROMAGNETICS CODE (nec2++) |
                               | Translated to 'C++' in Double Precision  |
                               |        Version 1.5.4 [2014-12-06]        |
                               |__________________________________________|



                               ---------------- COMMENTS ----------------
                                forw: 90, 0 ; back: 0, 0
                               



                                -------- STRUCTURE SPECIFICATION --------
                                COORDINATES MUST BE INPUT IN
                                METERS OR BE SCALED TO METERS
                                BEFORE STRUCTURE INPUT IS ENDED
  WIRE                                                                                 SEG FIRST  LAST  TAG
   No:        X1         Y1         Z1         X2         Y2         Z2       RADIUS   No:   SEG   SEG  No:

     1      0.0000     0.0000     0.0000     0.0000     0.0000     0.0582     0.0004     7     1     7    1
     2      0.0625     0.0000     0.0000     0.0625     0.0000     0.0582     0.0004     7     8    14    2
     3      0.1250     0.0000     0.0000     0.1250     0.0000     0.0582     0.0004     7    15    21    3
     4      0.1875     0.0000     0.0000     0.1875     0.0000     0.0582     0.0004     7    22    28    4
     5      0.2500     0.0000     0.0000     0.2500     0.0000     0.0582     0.0004     7    29    35    5
     6      0.3125     0.0000     0.0000     0.3125     0.0000     0.0582     0.0004     7    36    42    6
     7      0.3750     0.0000     0.0000     0.3750     0.0000     0.0582     0.0004     7    43    49    7
     8      0.4375     0.0000     0.0000     0.4375     0.0000     0.0582     0.0004     7    50    56    8

     TOTAL SEGMENTS USED: 56   SEGMENTS IN A SYMMETRIC CELL: 56   SYMMETRY FLAG: 0


                               ---------- SEGMENTATION DATA ----------
                                        COORDINATES IN METERS
                            I+ AND I- INDICATE THE SEGMENTS BEFORE AND AFTER I

   SEG    COORDINATES OF SEGM CENTER     SEGM    ORIENTATION ANGLES    WIRE    CONNECTION DATA   TAG
   No:       X         Y         Z      LENGTH     ALPHA      BETA    RADIUS    I-     I    I+   NO:
     1    0.0000    0.0000    0.0042    0.0083   90.0000    0.0000    0.0004     0     1     2     1
     2    0.0000    0.0000    0.0125    0.0083   90.0000    0.0000    0.0004     1     2     3     1
     3    0.0000    0.0000    0.0208    0.0083   90.0000    0.0000    0.0004     2     3     4     1
     4    0.0000    0.0000    0.0291    0.0083   90.0000    0.0000    0.0004     3     4     5     1
     5    0.0000    0.0000    0.0374    0.0083   90.0000    0.0000    0.0004     4     5     6     1
     6    0.0000    0.0000    0.0457    0.0083   90.0000    0.0000    0.0004     5     6     7     1
     7    0.0000    0.0000    0.0540    0.0083   90.0000    0.0000    0.0004     6     7     0     1
     8    0.0625    0.0000    0.0042    0.0083   90.0000    0.0000    0.0004     0     8     9     2
     9    0.0625    0.0000    0.0125    0.0083   90.0000    0.0000    0.0004     8     9    10     2
    10    0.0625    0.0000    0.0208    0.0083   90.0000    0.0000    0.0004     9    10    11     2
    11    0.0625    0.0000    0.0291    0.0083   90.0000    0.0000    0.0004    10    11    12     2
    12    0.0625    0.0000    0.0374    0.0083   90.0000    0.0000    0.0004    11    12    13     2
    13    0.0625    0.0000    0.0457    0.0083   90.0000    0.0000    0.0004    12    13    14     2
    14    0.0625    0.0000    0.0540    0.0083   90.0000    0.0000    0.0004    13    14     0     2
    15    0.1250    0.0000    0.0042    0.0083   90.0000    0.0000    0.0004     0    15    16     3
    16    0.1250    0.0000    0.0125    0.0083   90.0000    0.0000    0.0004    15    16    17     3
    17    0.1250    0.0000    0.0208    0.0083   90.0000    0.0000    0.0004    16    17    18     3
    18    0.1250    0.0000    0.0291    0.0083   90.0000    0.0000    0.0004    17    18    19     3
    19    0.1250    0.0000    0.0374    0.0083   90.0000    0.0000    0.0004    18    19    20     3
    20    0.1250    0.0000    0.0457    0.0083   90.0000    0.0000    0.0004    19    20    21     3
    21    0.1250    0.0000    0.0540    0.0083   90.0000    0.0000    0.0004    20    21     0     3
    22    0.1875    0.0000    0.0042    0.0083   90.0000    0.0000    0.0004     0    22    23     4
    23    0.1875    0.0000    0.0125    0.0083   90.0000    0.0000    0.0004    22    23    24     4
    24    0.1875    0.0000    0.0208    0.0083   90.0000    0.0000    0.0004    23    24    25     4
    25    0.1875    0.0000    0.0291    0.0083   90.0000    0.0000    0.0004    24    25    26     4
    26    0.1875    0.0000    0.0374    0.0083   90.0000    0.0000    0.0004    25    26    27     4
    27    0.1875    0.0000    0.0457    0.0083   90.0000    0.0000    0.0004    26    27    28     4
    28    0.1875    0.0000    0.0540    0.0083   90.0000    0.0000    0.0004    27    28     0     4
    29    0.2500    0.0000    0.0042    0.0083   90.0000    0.0000    0.0004     0    29    30     5
    30    0.2500    0.0000    0.0125    0.0083   90.0000    0.0000    0.0004    29    30    31     5
    31    0.2500    0.0000    0.0208    0.0083   90.0000    0.0000    0.0004    30    31    32     5
    32    0.2500    0.0000    0.0291    0.0083   90.0000    0.0000    0.0004    31    32    33     5
    33    0.2500    0.0000    0.0374    0.0083   90.0000    0.0000    0.0004    32    33    34     5
    34    0.2500    0.0000    0.0457    0.0083   90.0000    0.0000    0.0004    33    34    35     5
    35    0.2500    0.0000    0.0540    0.0083   90.0000    0.0000    0.0004    34    35     0     5
    36    0.3125    0.0000    0.0042    0.0083   90.0000    0.0000    0.0004     0    36    37     6
    37    0.3125    0.0000    0.0125    0.0083   90.0000    0.0000    0.0004    36    37    38     6
    38    0.3125    0.0000    0.0208    0.0083   90.0000    0.0000    0.0004    37    38    39     6
    39    0.3125    0.0000    0.0291    0.0083   90.0000    0.0000    0.0004    38    39    40     6
    40    0.3125    0.0000    0.0374    0.0083   90.0000    0.0000    0.0004    39    40    41     6
    41    0.3125    0.0000    0.0457    0.0083   90.0000    0.0000    0.0004    40    41    42     6
    42    0.3125    0.0000    0.0540    0.0083   90.0000    0.0000    0.0004    41    42     0     6
    43    0.3750    0.0000    0.0042    0.0083   90.0000    0.0000    0.0004     0    43    44     7
    44    0.3750    0.0000    0.0125    0.0083   90.0000    0.0000    0.0004    43    44    45     7
    45    0.3750    0.0000    0.0208    0.0083   90.0000    0.0000    0.0004    44    45    46     7
    46    0.3750    0.0000    0.0291    0.0083   90.0000    0.0000    0.0004    45    46    47     7
    47    0.3750    0.0000    0.0374    0.0083   90.0000    0.0000    0.0004    46    47    48     7
    48    0.3750    0.0000    0.0457    0.0083   90.0000    0.0000    0.0004    47    48    49     7
    49    0.3750    0.0000    0.0540    0.0083   90.0000    0.0000    0.0004    48    49     0     7
    50    0.4375    0.0000    0.0042    0.0083   90.0000    0.0000    0.0004     0    50    51     8
    51    0.4375    0.0000    0.0125    0.0083   90.0000    0.0000    0.0004    50    51    52     8
    52    0.4375    0.0000    0.0208    0.0083   90.0000    0.0000    0.0004    51    52    53     8
    53    0.4375    0.0000    0.0291    0.0083   90.0000    0.0000    0.0004    52    53    54     8
    54    0.4375    0.0000    0.0374    0.0083   90.0000    0.0000    0.0004    53    54    55     8
    55    0.4375    0.0000    0.0457    0.0083   90.0000    0.0000    0.0004    54    55    56     8
    56    0.4375    0.0000    0.0540    0.0083   90.0000    0.0000    0.0004    55    56     0     8



*****  DATA CARD N0.   1 EK   0     0     0     0 0.00000E+000 0.00000E+000 0.00000E+000 0.00000E+000 0.00000E+000 0.00000E+000
*****  DATA CARD N0.   2 EX   0     1     4     0 5.31593E-001 0.00000E+000 0.00000E+000 0.00000E+000 0.00000E+000 0.00000E+000
*****  DATA CARD N0.   3 EX   0     2     4     0 3.97033E-001 0.00000E+000 0.00000E+000 0.00000E+000 0.00000E+000 0.00000E+000
*****  DATA CARD N0.   4 EX   0     3     4     0 7.75400E-001 0.00000E+000 0.00000E+000 0.00000E+000 0.00000E+000 0.00000E+000
*****  DATA CARD N0.   5 EX   0     4     4     0 7.26551E-001 0.00000E+000 0.00000E+000 0.00000E+000 0.00000E+000 0.00000E+000
*****  DATA CARD N0.   6 EX   0     5     4     0 6.67672E-001 0.00000E+000 0.00000E+000 0.00000E+000 0.00000E+000 0.00000E+000
*****  DATA CARD N0.   7 EX   0     6     4     0 5.44172E-001 0.00000E+000 0.00000E+000 0.00000E+000 0.00000E+000 0.00000E+000
*****  DATA CARD N0.   8 EX   0     7     4     0 4.33022E-001 0.00000E+000 0.00000E+000 0.00000E+000 0.00000E+000 0.00000E+000
*****  DATA CARD N0.   9 EX   0     8     4     0 1.47672E-001 0.00000E+000 0.00000E+000 0.00000E+000 0.00000E+000 0.00000E+000
*****  DATA CARD N0.  10 GN  -1     0     0     0 0.00000E+000 0.00000E+000 0.00000E+000 0.00000E+000 0.00000E+000 0.00000E+000
*****  DATA CARD N0.  11 FR   0     1     0     0 2.40000E+003 0.00000E+000 0.00000E+000 0.00000E+000 0.00000E+000 0.00000E+000
*****  DATA CARD N0.  12 RP   0     1   361  1000 9.00000E+001 0.00000E+000 0.00000E+000 1.00000E+000 0.00000E+000 0.00000E+000


                               --------- FREQUENCY --------
                               FREQUENCY= 2.4000E+003 MHZ
                               WAVELENGTH=1.2491E-001 METERS


                        APPROXIMATE INTEGRATION EMPLOYED FOR SEGMENTS
                        THAT ARE MORE THAN 1.000 WAVELENGTHS APART
                        THE EXTENDED THIN WIRE KERNEL WILL BE USED



                          ------ STRUCTURE IMPEDANCE LOADING ------
                                 THIS STRUCTURE IS NOT LOADED



                            -------- ANTENNA ENVIRONMENT --------
                            FREE SPACE



                             ---------- MATRIX TIMING ----------
                               FILL= 4 msec  FACTOR: 1 msec


                      ----- ANTENNA INPUT PARAMETERS -----
  TAG   SEG       VOLTAGE (VOLTS)         CURRENT (AMPS)         IMPEDANCE (OHMS)        ADMITTANCE (MHOS)     POWER
  NO.   NO.     REAL      IMAGINARY     REAL      IMAGINARY     REAL      IMAGINARY    REAL       IMAGINARY   (WATTS)
   1     4  5.3159E-01  0.0000E+00  6.6500E-03  2.2699E-03  7.1597E+01 -2.4438E+01  1.2510E-02  4.2700E-03  1.7676E-03
   2    11  3.9703E-01  0.0000E+00  6.4404E-03  5.8232E-03  3.3918E+01 -3.0668E+01  1.6221E-02  1.4667E-02  1.2785E-03
   3    18  7.7540E-01  0.0000E+00  9.7485E-03  5.9365E-03  5.8023E+01 -3.5334E+01  1.2572E-02  7.6560E-03  3.7795E-03
   4    25  7.2655E-01  0.0000E+00  1.0651E-02  7.1538E-03  4.7009E+01 -3.1575E+01  1.4659E-02  9.8462E-03  3.8691E-03
   5    32  6.6767E-01  0.0000E+00  8.6324E-03  6.1460E-03  5.1327E+01 -3.6543E+01  1.2929E-02  9.2052E-03  2.8818E-03
   6    39  5.4417E-01  0.0000E+00  7.8518E-03  5.2714E-03  4.7773E+01 -3.2073E+01  1.4429E-02  9.6870E-03  2.1364E-03
   7    46  4.3302E-01  0.0000E+00  5.5806E-03  3.6691E-03  5.4176E+01 -3.5619E+01  1.2888E-02  8.4732E-03  1.2083E-03
   8    53  1.4767E-01  0.0000E+00  2.3579E-03  1.7564E-03  4.0279E+01 -3.0004E+01  1.5967E-02  1.1894E-02  1.7410E-04







                        ----- CURRENTS AND LOCATION -----
                            DISTANCES IN WAVELENGTHS 

   SEG  TAG    COORDINATES OF SEGM CENTER     SEGM    ------------- CURRENT (AMPS) -------------
   No:  No:       X         Y         Z      LENGTH     REAL      IMAGINARY    MAGN        PHASE
     1    1    0.0000    0.0000    0.0333   0.06655  1.8896E-03  3.6703E-04  1.9250E-03   10.992 
     2    1    0.0000    0.0000    0.0998   0.06655  4.4735E-03  1.0303E-03  4.5906E-03   12.969 
     3    1    0.0000    0.0000    0.1664   0.06655  6.0882E-03  1.7129E-03  6.3246E-03   15.714 
     4    1    0.0000    0.0000    0.2329   0.06655  6.6500E-03  2.2699E-03  7.0268E-03   18.847 
     5    1    0.0000    0.0000    0.2995   0.06655  6.0882E-03  1.7129E-03  6.3246E-03   15.714 
     6    1    0.0000    0.0000    0.3660   0.06655  4.4735E-03  1.0303E-03  4.5906E-03   12.969 
     7    1    0.0000    0.0000    0.4326   0.06655  1.8896E-03  3.6703E-04  1.9250E-03   10.992 
     8    2    0.5003    0.0000    0.0333   0.06655  1.8340E-03  1.4515E-03  2.3389E-03   38.358 
     9    2    0.5003    0.0000    0.0998   0.06655  4.3367E-03  3.5509E-03  5.6050E-03   39.310 
    10    2    0.5003    0.0000    0.1664   0.06655  5.8977E-03  5.0600E-03  7.7708E-03   40.628 
    11    2    0.5003    0.0000    0.2329   0.06655  6.4404E-03  5.8232E-03  8.6827E-03   42.119 
    12    2    0.5003    0.0000    0.2995   0.06655  5.8977E-03  5.0600E-03  7.7708E-03   40.628 
    13    2    0.5003    0.0000    0.3660   0.06655  4.3367E-03  3.5509E-03  5.6050E-03   39.310 
    14    2    0.5003    0.0000    0.4326   0.06655  1.8340E-03  1.4515E-03  2.3389E-03   38.358 
    15    3    1.0007    0.0000    0.0333   0.06655  2.7728E-03  1.2845E-03  3.0559E-03   24.857 
    16    3    1.0007    0.0000    0.0998   0.06655  6.5607E-03  3.2723E-03  7.3315E-03   26.508 
    17    3    1.0007    0.0000    0.1664   0.06655  8.9258E-03  4.9034E-03  1.0184E-02   28.782 
    18    3    1.0007    0.0000    0.2329   0.06655  9.7485E-03  5.9365E-03  1.1414E-02   31.340 
    19    3    1.0007    0.0000    0.2995   0.06655  8.9258E-03  4.9034E-03  1.0184E-02   28.782 
    20    3    1.0007    0.0000    0.3660   0.06655  6.5607E-03  3.2723E-03  7.3315E-03   26.508 
    21    3    1.0007    0.0000    0.4326   0.06655  2.7728E-03  1.2845E-03  3.0559E-03   24.857 
    22    4    1.5010    0.0000    0.0333   0.06655  3.0293E-03  1.6580E-03  3.4534E-03   28.693 
    23    4    1.5010    0.0000    0.0998   0.06655  7.1678E-03  4.1388E-03  8.2769E-03   30.003 
    24    4    1.5010    0.0000    0.1664   0.06655  9.7518E-03  6.0520E-03  1.1477E-02   31.824 
    25    4    1.5010    0.0000    0.2329   0.06655  1.0651E-02  7.1538E-03  1.2830E-02   33.888 
    26    4    1.5010    0.0000    0.2995   0.06655  9.7518E-03  6.0520E-03  1.1477E-02   31.824 
    27    4    1.5010    0.0000    0.3660   0.06655  7.1678E-03  4.1388E-03  8.2769E-03   30.003 
    28    4    1.5010    0.0000    0.4326   0.06655  3.0293E-03  1.6580E-03  3.4534E-03   28.693 
    29    5    2.0014    0.0000    0.0333   0.06655  2.4569E-03  1.4007E-03  2.8282E-03   29.688 
    30    5    2.0014    0.0000    0.0998   0.06655  5.8113E-03  3.5142E-03  6.7912E-03   31.162 
    31    5    2.0014    0.0000    0.1664   0.06655  7.9045E-03  5.1693E-03  9.4447E-03   33.184 
    32    5    2.0014    0.0000    0.2329   0.06655  8.6324E-03  6.1460E-03  1.0597E-02   35.450 
    33    5    2.0014    0.0000    0.2995   0.06655  7.9045E-03  5.1693E-03  9.4447E-03   33.184 
    34    5    2.0014    0.0000    0.3660   0.06655  5.8113E-03  3.5142E-03  6.7912E-03   31.162 
    35    5    2.0014    0.0000    0.4326   0.06655  2.4569E-03  1.4007E-03  2.8282E-03   29.688 
    36    6    2.5017    0.0000    0.0333   0.06655  2.2335E-03  1.2172E-03  2.5437E-03   28.589 
    37    6    2.5017    0.0000    0.0998   0.06655  5.2845E-03  3.0416E-03  6.0974E-03   29.924 
    38    6    2.5017    0.0000    0.1664   0.06655  7.1893E-03  4.4535E-03  8.4569E-03   31.777 
    39    6    2.5017    0.0000    0.2329   0.06655  7.8518E-03  5.2714E-03  9.4572E-03   33.876 
    40    6    2.5017    0.0000    0.2995   0.06655  7.1893E-03  4.4535E-03  8.4569E-03   31.777 
    41    6    2.5017    0.0000    0.3660   0.06655  5.2845E-03  3.0416E-03  6.0974E-03   29.924 
    42    6    2.5017    0.0000    0.4326   0.06655  2.2335E-03  1.2172E-03  2.5437E-03   28.589 
    43    7    3.0020    0.0000    0.0333   0.06655  1.5875E-03  8.1803E-04  1.7859E-03   27.262 
    44    7    3.0020    0.0000    0.0998   0.06655  3.7560E-03  2.0656E-03  4.2865E-03   28.808 
    45    7    3.0020    0.0000    0.1664   0.06655  5.1097E-03  3.0623E-03  5.9571E-03   30.935 
    46    7    3.0020    0.0000    0.2329   0.06655  5.5806E-03  3.6691E-03  6.6787E-03   33.324 
    47    7    3.0020    0.0000    0.2995   0.06655  5.1097E-03  3.0623E-03  5.9571E-03   30.935 
    48    7    3.0020    0.0000    0.3660   0.06655  3.7560E-03  2.0656E-03  4.2865E-03   28.808 
    49    7    3.0020    0.0000    0.4326   0.06655  1.5875E-03  8.1803E-04  1.7859E-03   27.262 
    50    8    3.5024    0.0000    0.0333   0.06655  6.7138E-04  4.2331E-04  7.9369E-04   32.232 
    51    8    3.5024    0.0000    0.0998   0.06655  1.5876E-03  1.0451E-03  1.9007E-03   33.355 
    52    8    3.5024    0.0000    0.1664   0.06655  2.1591E-03  1.5071E-03  2.6331E-03   34.914 
    53    8    3.5024    0.0000    0.2329   0.06655  2.3579E-03  1.7564E-03  2.9402E-03   36.683 
    54    8    3.5024    0.0000    0.2995   0.06655  2.1591E-03  1.5071E-03  2.6331E-03   34.914 
    55    8    3.5024    0.0000    0.3660   0.06655  1.5876E-03  1.0451E-03  1.9007E-03   33.355 
    56    8    3.5024    0.0000    0.4326   0.06655  6.7138E-04  4.2331E-04  7.9369E-04   32.232 






                               ---------- POWER BUDGET ---------
                               INPUT POWER   = 1.7095E-002 Watts
                               RADIATED POWER= 1.7095E-002 Watts
                               STRUCTURE LOSS= 0.0000E+000 Watts
                               NETWORK LOSS  = 0.0000E+000 Watts
                               EFFICIENCY    =  100.00 Percent


                         ----- RADIATION PATTERNS -----
 ---- ANGLES -----     ----- POWER GAINS -----       ---- POLARIZATION ----   ---- E(THETA) ----    ----- E(PHI) ------
  THETA      PHI       VERTC   HORIZ   TOTAL       AXIAL      TILT  SENSE   MAGNITUDE    PHASE    MAGNITUDE     PHASE
 DEGREES   DEGREES        DB       DB       DB       RATIO   DEGREES            VOLTS/M   DEGREES     VOLTS/M   DEGREES
   90.00      0.00    -12.29  -999.99   -12.29      0.0000      0.00 LINEAR  2.4605E-01     52.72  0.0000E+00      0.00
   90.00      1.00    -12.30  -999.99   -12.30      0.0000      0.00 LINEAR  2.4576E-01     52.72  0.0000E+00      0.00
   90.00      2.00    -12.33  -999.99   -12.33      0.0000      0.00 LINEAR  2.4488E-01     52.73  0.0000E+00      0.00
   90.00      3.00    -12.38  -999.99   -12.38      0.0000      0.00 LINEAR  2.4343E-01     52.75  0.0000E+00      0.00
   90.00      4.00    -12.45  -999.99   -12.45      0.0000      0.00 LINEAR  2.4140E-01     52.78  0.0000E+00      0.00
   90.00      5.00    -12.55  -999.99   -12.55      0.0000      0.00 LINEAR  2.3880E-01     52.83  0.0000E+00      0.00
   90.00      6.00    -12.66  -999.99   -12.66      0.0000      0.00 LINEAR  2.3564E-01     52.92  0.0000E+00      0.00
   90.00      7.00    -12.80  -999.99   -12.80      0.0000      0.00 LINEAR  2.3193E-01     53.05  0.0000E+00      0.00
   90.00      8.00    -12.96  -999.99   -12.96      0.0000      0.00 LINEAR  2.2771E-01     53.23  0.0000E+00      0.00
   90.00      9.00    -13.14  -999.99   -13.14      0.0000      0.00 LINEAR  2.2298E-01     53.50  0.0000E+00      0.00
   90.00     10.00    -13.35  -999.99   -13.35      0.0000      0.00 LINEAR  2.1781E-01     53.86  0.0000E+00      0.00
   90.00     11.00    -13.57  -999.99   -13.57      0.0000      0.00 LINEAR  2.1224E-01     54.36  0.0000E+00      0.00
   90.00     12.00    -13.82  -999.99   -13.82      0.0000      0.00 LINEAR  2.0634E-01     55.00  0.0000E+00      0.00
   90.00     13.00    -14.08  -999.99   -14.08      0.0000      0.00 LINEAR  2.0020E-01     55.84  0.0000E+00      0.00
   90.00     14.00    -14.35  -999.99   -14.35      0.0000      0.00 LINEAR  1.9394E-01     56.90  0.0000E+00      0.00
   90.00     15.00    -14.64  -999.99   -14.64      0.0000      0.00 LINEAR  1.8771E-01     58.22  0.0000E+00      0.00
   90.00     16.00    -14.92  -999.99   -14.92      0.0000      0.00 LINEAR  1.8167E-01     59.83  0.0000E+00      0.00
   90.00     17.00    -15.20  -999.99   -15.20      0.0000      0.00 LINEAR  1.7601E-01     61.76  0.0000E+00      0.00
   90.00     18.00    -15.45  -999.99   -15.45      0.0000      0.00 LINEAR  1.7096E-01     64.02  0.0000E+00      0.00
   90.00     19.00    -15.67  -999.99   -15.67      0.0000      0.00 LINEAR  1.6674E-01     66.58  0.0000E+00      0.00
   90.00     20.00    -15.83  -999.99   -15.83      0.0000      0.00 LINEAR  1.6358E-01     69.42  0.0000E+00      0.00
   90.00     21.00    -15.94  -999.99   -15.94      0.0000      0.00 LINEAR  1.6165E-01     72.44  0.0000E+00      0.00
   90.00     22.00    -15.97  -999.99   -15.97      0.0000      0.00 LINEAR  1.6109E-01     75.52  0.0000E+00      0.00
   90.00     23.00    -15.92  -999.99   -15.92      0.0000      0.00 LINEAR  1.6194E-01     78.54  0.0000E+00      0.00
   90.00     24.00    -15.80  -999.99   -15.80      0.0000      0.00 LINEAR  1.6413E-01     81.36  0.0000E+00      0.00
   90.00     25.00    -15.63  -999.99   -15.63      0.0000      0.00 LINEAR  1.6752E-01     83.84  0.0000E+00      0.00
   90.00     26.00    -15.40  -999.99   -15.40      0.0000      0.00 LINEAR  1.7185E-01     85.91  0.0000E+00      0.00
   90.00     27.00    -15.16  -999.99   -15.16      0.0000      0.00 LINEAR  1.7681E-01     87.50  0.0000E+00      0.00
   90.00     28.00    -14.90  -999.99   -14.90      0.0000      0.00 LINEAR  1.8206E-01     88.62  0.0000E+00      0.00
   90.00     29.00    -14.66  -999.99   -14.66      0.0000      0.00 LINEAR  1.8724E-01     89.27  0.0000E+00      0.00
   90.00     30.00    -14.44  -999.99   -14.44      0.0000      0.00 LINEAR  1.9200E-01     89.50  0.0000E+00      0.00
   90.00     31.00    -14.26  -999.99   -14.26      0.0000      0.00 LINEAR  1.9602E-01     89.37  0.0000E+00      0.00
   90.00     32.00    -14.13  -999.99   -14.13      0.0000      0.00 LINEAR  1.9901E-01     88.95  0.0000E+00      0.00
   90.00     33.00    -14.05  -999.99   -14.05      0.0000      0.00 LINEAR  2.0076E-01     88.33  0.0000E+00      0.00
   90.00     34.00    -14.04  -999.99   -14.04      0.0000      0.00 LINEAR  2.0110E-01     87.58  0.0000E+00      0.00
   90.00     35.00    -14.09  -999.99   -14.09      0.0000      0.00 LINEAR  1.9998E-01     86.81  0.0000E+00      0.00
   90.00     36.00    -14.20  -999.99   -14.20      0.0000      0.00 LINEAR  1.9740E-01     86.12  0.0000E+00      0.00
   90.00     37.00    -14.37  -999.99   -14.37      0.0000      0.00 LINEAR  1.9354E-01     85.62  0.0000E+00      0.00
   90.00     38.00    -14.59  -999.99   -14.59      0.0000      0.00 LINEAR  1.8866E-01     85.42  0.0000E+00      0.00
   90.00     39.00    -14.85  -999.99   -14.85      0.0000      0.00 LINEAR  1.8318E-01     85.64  0.0000E+00      0.00
   90.00     40.00    -15.12  -999.99   -15.12      0.0000      0.00 LINEAR  1.7766E-01     86.34  0.0000E+00      0.00
   90.00     41.00    -15.36  -999.99   -15.36      0.0000      0.00 LINEAR  1.7273E-01     87.55  0.0000E+00      0.00
   90.00     42.00    -15.55  -999.99   -15.55      0.0000      0.00 LINEAR  1.6907E-01     89.19  0.0000E+00      0.00
   90.00     43.00    -15.64  -999.99   -15.64      0.0000      0.00 LINEAR  1.6722E-01     91.05  0.0000E+00      0.00
   90.00     44.00    -15.63  -999.99   -15.63      0.0000      0.00 LINEAR  1.6745E-01     92.81  0.0000E+00      0.00
   90.00     45.00    -15.51  -999.99   -15.51      0.0000      0.00 LINEAR  1.6968E-01     94.11  0.0000E+00      0.00
   90.00     46.00    -15.33  -999.99   -15.33      0.0000      0.00 LINEAR  1.7339E-01     94.62  0.0000E+00      0.00
   90.00     47.00    -15.11  -999.99   -15.11      0.0000      0.00 LINEAR  1.7775E-01     94.10  0.0000E+00      0.00
   90.00     48.00    -14.92  -999.99   -14.92      0.0000      0.00 LINEAR  1.8174E-01     92.43  0.0000E+00      0.00
   90.00     49.00    -14.80  -999.99   -14.80      0.0000      0.00 LINEAR  1.8425E-01     89.56  0.0000E+00      0.00
   90.00     50.00    -14.80  -999.99   -14.80      0.0000      0.00 LINEAR  1.8425E-01     85.49  0.0000E+00      0.00
   90.00     51.00    -14.96  -999.99   -14.96      0.0000      0.00 LINEAR  1.8085E-01     80.18  0.0000E+00      0.00
   90.00     52.00    -15.33  -999.99   -15.33      0.0000      0.00 LINEAR  1.7339E-01     73.55  0.0000E+00      0.00
   90.00     53.00    -15.94  -999.99   -15.94      0.0000      0.00 LINEAR  1.6153E-01     65.37  0.0000E+00      0.00
   90.00     54.00    -16.86  -999.99   -16.86      0.0000      0.00 LINEAR  1.4539E-01     55.16  0.0000E+00      0.00
   90.00     55.00    -18.11  -999.99   -18.11      0.0000      0.00 LINEAR  1.2583E-01     41.97  0.0000E+00      0.00
   90.00     56.00    -19.67  -999.99   -19.67      0.0000      0.00 LINEAR  1.0517E-01     23.91  0.0000E+00      0.00
   90.00     57.00    -21.17  -999.99   -21.17      0.0000      0.00 LINEAR  8.8532E-02     -1.84  0.0000E+00      0.00
   90.00     58.00    -21.55  -999.99   -21.55      0.0000      0.00 LINEAR  8.4675E-02    -35.34  0.0000E+00      0.00
   90.00     59.00    -20.18  -999.99   -20.18      0.0000      0.00 LINEAR  9.9223E-02    -67.77  0.0000E+00      0.00
   90.00     60.00    -18.01  -999.99   -18.01      0.0000      0.00 LINEAR  1.2735E-01    -92.24  0.0000E+00      0.00
   90.00     61.00    -15.96  -999.99   -15.96      0.0000      0.00 LINEAR  1.6128E-01   -110.24  0.0000E+00      0.00
   90.00     62.00    -14.29  -999.99   -14.29      0.0000      0.00 LINEAR  1.9541E-01   -124.47  0.0000E+00      0.00
   90.00     63.00    -13.04  -999.99   -13.04      0.0000      0.00 LINEAR  2.2568E-01   -136.55  0.0000E+00      0.00
   90.00     64.00    -12.19  -999.99   -12.19      0.0000      0.00 LINEAR  2.4867E-01   -147.29  0.0000E+00      0.00
   90.00     65.00    -11.77  -999.99   -11.77      0.0000      0.00 LINEAR  2.6121E-01   -157.07  0.0000E+00      0.00
   90.00     66.00    -11.80  -999.99   -11.80      0.0000      0.00 LINEAR  2.6034E-01   -165.95  0.0000E+00      0.00
   90.00     67.00    -12.38  -999.99   -12.38      0.0000      0.00 LINEAR  2.4341E-01   -173.71  0.0000E+00      0.00
   90.00     68.00    -13.73  -999.99   -13.73      0.0000      0.00 LINEAR  2.0841E-01   -179.47  0.0000E+00      0.00
   90.00     69.00    -16.29  -999.99   -16.29      0.0000      0.00 LINEAR  1.5523E-01    179.72  0.0000E+00      0.00
   90.00     70.00    -20.63  -999.99   -20.63      0.0000      0.00 LINEAR  9.4159E-02   -162.51  0.0000E+00      0.00
   90.00     71.00    -20.17  -999.99   -20.17      0.0000      0.00 LINEAR  9.9314E-02   -103.64  0.0000E+00      0.00
   90.00     72.00    -13.68  -999.99   -13.68      0.0000      0.00 LINEAR  2.0965E-01    -81.95  0.0000E+00      0.00
   90.00     73.00     -8.89  -999.99    -8.89      0.0000      0.00 LINEAR  3.6395E-01    -81.80  0.0000E+00      0.00
   90.00     74.00     -5.33  -999.99    -5.33      0.0000      0.00 LINEAR  5.4791E-01    -87.15  0.0000E+00      0.00
   90.00     75.00     -2.52  -999.99    -2.52      0.0000      0.00 LINEAR  7.5760E-01    -94.53  0.0000E+00      0.00
   90.00     76.00     -0.19  -999.99    -0.19      0.0000      0.00 LINEAR  9.9001E-01   -102.88  0.0000E+00      0.00
   90.00     77.00      1.77  -999.99     1.77      0.0000      0.00 LINEAR  1.2418E+00   -111.77  0.0000E+00      0.00
   90.00     78.00      3.47  -999.99     3.47      0.0000      0.00 LINEAR  1.5090E+00   -120.99  0.0000E+00      0.00
   90.00     79.00      4.94  -999.99     4.94      0.0000      0.00 LINEAR  1.7870E+00   -130.44  0.0000E+00      0.00
   90.00     80.00      6.21  -999.99     6.21      0.0000      0.00 LINEAR  2.0706E+00   -140.05  0.0000E+00      0.00
   90.00     81.00      7.33  -999.99     7.33      0.0000      0.00 LINEAR  2.3543E+00   -149.77  0.0000E+00      0.00
   90.00     82.00      8.30  -999.99     8.30      0.0000      0.00 LINEAR  2.6320E+00   -159.59  0.0000E+00      0.00
   90.00     83.00      9.13  -999.99     9.13      0.0000      0.00 LINEAR  2.8977E+00   -169.47  0.0000E+00      0.00
   90.00     84.00      9.85  -999.99     9.85      0.0000      0.00 LINEAR  3.1452E+00   -179.40  0.0000E+00      0.00
   90.00     85.00     10.44  -999.99    10.44      0.0000      0.00 LINEAR  3.3689E+00    170.63  0.0000E+00      0.00
   90.00     86.00     10.93  -999.99    10.93      0.0000      0.00 LINEAR  3.5632E+00    160.64  0.0000E+00      0.00
   90.00     87.00     11.31  -999.99    11.31      0.0000      0.00 LINEAR  3.7234E+00    150.63  0.0000E+00      0.00
   90.00     88.00     11.59  -999.99    11.59      0.0000      0.00 LINEAR  3.8453E+00    140.62  0.0000E+00      0.00
   90.00     89.00     11.77  -999.99    11.77      0.0000      0.00 LINEAR  3.9257E+00    130.61  0.0000E+00      0.00
   90.00     90.00     11.85  -999.99    11.85      0.0000      0.00 LINEAR  3.9625E+00    120.61  0.0000E+00      0.00
   90.00     91.00     11.83  -999.99    11.83      0.0000      0.00 LINEAR  3.9545E+00    110.64  0.0000E+00      0.00
   90.00     92.00     11.72  -999.99    11.72      0.0000      0.00 LINEAR  3.9018E+00    100.70  0.0000E+00      0.00
   90.00     93.00     11.50  -999.99    11.50      0.0000      0.00 LINEAR  3.8054E+00     90.81  0.0000E+00      0.00
   90.00     94.00     11.18  -999.99    11.18      0.0000      0.00 LINEAR  3.6677E+00     80.97  0.0000E+00      0.00
   90.00     95.00     10.75  -999.99    10.75      0.0000      0.00 LINEAR  3.4918E+00     71.20  0.0000E+00      0.00
   90.00     96.00     10.22  -999.99    10.22      0.0000      0.00 LINEAR  3.2821E+00     61.52  0.0000E+00      0.00
   90.00     97.00      9.56  -999.99     9.56      0.0000      0.00 LINEAR  3.0433E+00     51.96  0.0000E+00      0.00
   90.00     98.00      8.78  -999.99     8.78      0.0000      0.00 LINEAR  2.7811E+00     42.52  0.0000E+00      0.00
   90.00     99.00      7.86  -999.99     7.86      0.0000      0.00 LINEAR  2.5016E+00     33.26  0.0000E+00      0.00
   90.00    100.00      6.78  -999.99     6.78      0.0000      0.00 LINEAR  2.2111E+00     24.21  0.0000E+00      0.00
   90.00    101.00      5.54  -999.99     5.54      0.0000      0.00 LINEAR  1.9159E+00     15.45  0.0000E+00      0.00
   90.00    102.00      4.10  -999.99     4.10      0.0000      0.00 LINEAR  1.6224E+00      7.07  0.0000E+00      0.00
   90.00    103.00      2.41  -999.99     2.41      0.0000      0.00 LINEAR  1.3368E+00     -0.75  0.0000E+00      0.00
   90.00    104.00      0.44  -999.99     0.44      0.0000      0.00 LINEAR  1.0649E+00     -7.74  0.0000E+00      0.00
   90.00    105.00     -1.91  -999.99    -1.91      0.0000      0.00 LINEAR  8.1245E-01    -13.37  0.0000E+00      0.00
   90.00    106.00     -4.75  -999.99    -4.75      0.0000      0.00 LINEAR  5.8565E-01    -16.50  0.0000E+00      0.00
   90.00    107.00     -8.22  -999.99    -8.22      0.0000      0.00 LINEAR  3.9308E-01    -14.46  0.0000E+00      0.00
   90.00    108.00    -12.05  -999.99   -12.05      0.0000      0.00 LINEAR  2.5286E-01     -0.76  0.0000E+00      0.00
   90.00    109.00    -13.97  -999.99   -13.97      0.0000      0.00 LINEAR  2.0263E-01     29.30  0.0000E+00      0.00
   90.00    110.00    -12.42  -999.99   -12.42      0.0000      0.00 LINEAR  2.4220E-01     53.08  0.0000E+00      0.00
   90.00    111.00    -10.36  -999.99   -10.36      0.0000      0.00 LINEAR  3.0701E-01     61.00  0.0000E+00      0.00
   90.00    112.00     -8.93  -999.99    -8.93      0.0000      0.00 LINEAR  3.6197E-01     61.20  0.0000E+00      0.00
   90.00    113.00     -8.12  -999.99    -8.12      0.0000      0.00 LINEAR  3.9753E-01     58.15  0.0000E+00      0.00
   90.00    114.00     -7.81  -999.99    -7.81      0.0000      0.00 LINEAR  4.1207E-01     53.73  0.0000E+00      0.00
   90.00    115.00     -7.92  -999.99    -7.92      0.0000      0.00 LINEAR  4.0669E-01     48.81  0.0000E+00      0.00
   90.00    116.00     -8.43  -999.99    -8.43      0.0000      0.00 LINEAR  3.8377E-01     43.97  0.0000E+00      0.00
   90.00    117.00     -9.32  -999.99    -9.32      0.0000      0.00 LINEAR  3.4636E-01     39.72  0.0000E+00      0.00
   90.00    118.00    -10.62  -999.99   -10.62      0.0000      0.00 LINEAR  2.9815E-01     36.74  0.0000E+00      0.00
   90.00    119.00    -12.37  -999.99   -12.37      0.0000      0.00 LINEAR  2.4357E-01     36.17  0.0000E+00      0.00
   90.00    120.00    -14.59  -999.99   -14.59      0.0000      0.00 LINEAR  1.8883E-01     40.27  0.0000E+00      0.00
   90.00    121.00    -16.91  -999.99   -16.91      0.0000      0.00 LINEAR  1.4452E-01     53.15  0.0000E+00      0.00
   90.00    122.00    -17.94  -999.99   -17.94      0.0000      0.00 LINEAR  1.2834E-01     76.53  0.0000E+00      0.00
   90.00    123.00    -16.61  -999.99   -16.61      0.0000      0.00 LINEAR  1.4963E-01     98.21  0.0000E+00      0.00
   90.00    124.00    -14.38  -999.99   -14.38      0.0000      0.00 LINEAR  1.9330E-01    109.11  0.0000E+00      0.00
   90.00    125.00    -12.38  -999.99   -12.38      0.0000      0.00 LINEAR  2.4339E-01    112.56  0.0000E+00      0.00
   90.00    126.00    -10.79  -999.99   -10.79      0.0000      0.00 LINEAR  2.9216E-01    112.23  0.0000E+00      0.00
   90.00    127.00     -9.58  -999.99    -9.58      0.0000      0.00 LINEAR  3.3611E-01    110.02  0.0000E+00      0.00
   90.00    128.00     -8.66  -999.99    -8.66      0.0000      0.00 LINEAR  3.7356E-01    106.86  0.0000E+00      0.00
   90.00    129.00     -7.98  -999.99    -7.98      0.0000      0.00 LINEAR  4.0377E-01    103.24  0.0000E+00      0.00
   90.00    130.00     -7.51  -999.99    -7.51      0.0000      0.00 LINEAR  4.2655E-01     99.47  0.0000E+00      0.00
   90.00    131.00     -7.20  -999.99    -7.20      0.0000      0.00 LINEAR  4.4214E-01     95.72  0.0000E+00      0.00
   90.00    132.00     -7.02  -999.99    -7.02      0.0000      0.00 LINEAR  4.5110E-01     92.13  0.0000E+00      0.00
   90.00    133.00     -6.96  -999.99    -6.96      0.0000      0.00 LINEAR  4.5421E-01     88.81  0.0000E+00      0.00
   90.00    134.00     -7.00  -999.99    -7.00      0.0000      0.00 LINEAR  4.5241E-01     85.83  0.0000E+00      0.00
   90.00    135.00     -7.11  -999.99    -7.11      0.0000      0.00 LINEAR  4.4679E-01     83.24  0.0000E+00      0.00
   90.00    136.00     -7.27  -999.99    -7.27      0.0000      0.00 LINEAR  4.3846E-01     81.11  0.0000E+00      0.00
   90.00    137.00     -7.47  -999.99    -7.47      0.0000      0.00 LINEAR  4.2855E-01     79.44  0.0000E+00      0.00
   90.00    138.00     -7.68  -999.99    -7.68      0.0000      0.00 LINEAR  4.1815E-01     78.23  0.0000E+00      0.00
   90.00    139.00     -7.89  -999.99    -7.89      0.0000      0.00 LINEAR  4.0818E-01     77.45  0.0000E+00      0.00
   90.00    140.00     -8.08  -999.99    -8.08      0.0000      0.00 LINEAR  3.9942E-01     77.04  0.0000E+00      0.00
   90.00    141.00     -8.23  -999.99    -8.23      0.0000      0.00 LINEAR  3.9239E-01     76.91  0.0000E+00      0.00
   90.00    142.00     -8.35  -999.99    -8.35      0.0000      0.00 LINEAR  3.8735E-01     76.94  0.0000E+00      0.00
   90.00    143.00     -8.41  -999.99    -8.41      0.0000      0.00 LINEAR  3.8433E-01     77.03  0.0000E+00      0.00
   90.00    144.00     -8.44  -999.99    -8.44      0.0000      0.00 LINEAR  3.8311E-01     77.07  0.0000E+00      0.00
   90.00    145.00     -8.44  -999.99    -8.44      0.0000      0.00 LINEAR  3.8335E-01     76.97  0.0000E+00      0.00
   90.00    146.00     -8.41  -999.99    -8.41      0.0000      0.00 LINEAR  3.8458E-01     76.69  0.0000E+00      0.00
   90.00    147.00     -8.37  -999.99    -8.37      0.0000      0.00 LINEAR  3.8634E-01     76.20  0.0000E+00      0.00
   90.00    148.00     -8.33  -999.99    -8.33      0.0000      0.00 LINEAR  3.8817E-01     75.49  0.0000E+00      0.00
   90.00    149.00     -8.29  -999.99    -8.29      0.0000      0.00 LINEAR  3.8970E-01     74.58  0.0000E+00      0.00
   90.00    150.00     -8.27  -999.99    -8.27      0.0000      0.00 LINEAR  3.9060E-01     73.49  0.0000E+00      0.00
   90.00    151.00     -8.27  -999.99    -8.27      0.0000      0.00 LINEAR  3.9066E-01     72.26  0.0000E+00      0.00
   90.00    152.00     -8.29  -999.99    -8.29      0.0000      0.00 LINEAR  3.8973E-01     70.92  0.0000E+00      0.00
   90.00    153.00     -8.34  -999.99    -8.34      0.0000      0.00 LINEAR  3.8774E-01     69.51  0.0000E+00      0.00
   90.00    154.00     -8.41  -999.99    -8.41      0.0000      0.00 LINEAR  3.8468E-01     68.05  0.0000E+00      0.00
   90.00    155.00     -8.50  -999.99    -8.50      0.0000      0.00 LINEAR  3.8058E-01     66.58  0.0000E+00      0.00
   90.00    156.00     -8.61  -999.99    -8.61      0.0000      0.00 LINEAR  3.7552E-01     65.11  0.0000E+00      0.00
   90.00    157.00     -8.75  -999.99    -8.75      0.0000      0.00 LINEAR  3.6961E-01     63.69  0.0000E+00      0.00
   90.00    158.00     -8.91  -999.99    -8.91      0.0000      0.00 LINEAR  3.6297E-01     62.31  0.0000E+00      0.00
   90.00    159.00     -9.08  -999.99    -9.08      0.0000      0.00 LINEAR  3.5573E-01     61.00  0.0000E+00      0.00
   90.00    160.00     -9.27  -999.99    -9.27      0.0000      0.00 LINEAR  3.4804E-01     59.78  0.0000E+00      0.00
   90.00    161.00     -9.48  -999.99    -9.48      0.0000      0.00 LINEAR  3.4003E-01     58.65  0.0000E+00      0.00
   90.00    162.00     -9.69  -999.99    -9.69      0.0000      0.00 LINEAR  3.3185E-01     57.62  0.0000E+00      0.00
   90.00    163.00     -9.91  -999.99    -9.91      0.0000      0.00 LINEAR  3.2360E-01     56.69  0.0000E+00      0.00
   90.00    164.00    -10.13  -999.99   -10.13      0.0000      0.00 LINEAR  3.1542E-01     55.88  0.0000E+00      0.00
   90.00    165.00    -10.35  -999.99   -10.35      0.0000      0.00 LINEAR  3.0741E-01     55.17  0.0000E+00      0.00
   90.00    166.00    -10.57  -999.99   -10.57      0.0000      0.00 LINEAR  2.9965E-01     54.57  0.0000E+00      0.00
   90.00    167.00    -10.79  -999.99   -10.79      0.0000      0.00 LINEAR  2.9223E-01     54.07  0.0000E+00      0.00
   90.00    168.00    -11.00  -999.99   -11.00      0.0000      0.00 LINEAR  2.8522E-01     53.66  0.0000E+00      0.00
   90.00    169.00    -11.21  -999.99   -11.21      0.0000      0.00 LINEAR  2.7867E-01     53.34  0.0000E+00      0.00
   90.00    170.00    -11.40  -999.99   -11.40      0.0000      0.00 LINEAR  2.7262E-01     53.10  0.0000E+00      0.00
   90.00    171.00    -11.57  -999.99   -11.57      0.0000      0.00 LINEAR  2.6710E-01     52.93  0.0000E+00      0.00
   90.00    172.00    -11.74  -999.99   -11.74      0.0000      0.00 LINEAR  2.6214E-01     52.81  0.0000E+00      0.00
   90.00    173.00    -11.88  -999.99   -11.88      0.0000      0.00 LINEAR  2.5775E-01     52.74  0.0000E+00      0.00
   90.00    174.00    -12.01  -999.99   -12.01      0.0000      0.00 LINEAR  2.5395E-01     52.71  0.0000E+00      0.00
   90.00    175.00    -12.12  -999.99   -12.12      0.0000      0.00 LINEAR  2.5073E-01     52.70  0.0000E+00      0.00
   90.00    176.00    -12.21  -999.99   -12.21      0.0000      0.00 LINEAR  2.4811E-01     52.70  0.0000E+00      0.00
   90.00    177.00    -12.29  -999.99   -12.29      0.0000      0.00 LINEAR  2.4606E-01     52.72  0.0000E+00      0.00
   90.00    178.00    -12.34  -999.99   -12.34      0.0000      0.00 LINEAR  2.4461E-01     52.73  0.0000E+00      0.00
   90.00    179.00    -12.37  -999.99   -12.37      0.0000      0.00 LINEAR  2.4374E-01     52.74  0.0000E+00      0.00
   90.00    180.00    -12.38  -999.99   -12.38      0.0000      0.00 LINEAR  2.4344E-01     52.75  0.0000E+00      0.00
   90.00    181.00    -12.37  -999.99   -12.37      0.0000      0.00 LINEAR  2.4374E-01     52.74  0.0000E+00      0.00
   90.00    182.00    -12.34  -999.99   -12.34      0.0000      0.00 LINEAR  2.4461E-01     52.73  0.0000E+00      0.00
   90.00    183.00    -12.29  -999.99   -12.29      0.0000      0.00 LINEAR  2.4606E-01     52.72  0.0000E+00      0.00
   90.00    184.00    -12.21  -999.99   -12.21      0.0000      0.00 LINEAR  2.4811E-01     52.70  0.0000E+00      0.00
   90.00    185.00    -12.12  -999.99   -12.12      0.0000      0.00 LINEAR  2.5073E-01     52.70  0.0000E+00      0.00
   90.00    186.00    -12.01  -999.99   -12.01      0.0000      0.00 LINEAR  2.5395E-01     52.71  0.0000E+00      0.00
   90.00    187.00    -11.88  -999.99   -11.88      0.0000      0.00 LINEAR  2.5775E-01     52.74  0.0000E+00      0.00
   90.00    188.00    -11.74  -999.99   -11.74      0.0000      0.00 LINEAR  2.6214E-01     52.81  0.0000E+00      0.00
   90.00    189.00    -11.57  -999.99   -11.57      0.0000      0.00 LINEAR  2.6710E-01     52.93  0.0000E+00      0.00
   90.00    190.00    -11.40  -999.99   -11.40      0.0000      0.00 LINEAR  2.7262E-01     53.10  0.0000E+00      0.00
   90.00    191.00    -11.21  -999.99   -11.21      0.0000      0.00 LINEAR  2.7867E-01     53.34  0.0000E+00      0.00
   90.00    192.00    -11.00  -999.99   -11.00      0.0000      0.00 LINEAR  2.8522E-01     53.66  0.0000E+00      0.00
   90.00    193.00    -10.79  -999.99   -10.79      0.0000      0.00 LINEAR  2.9223E-01     54.07  0.0000E+00      0.00
   90.00    194.00    -10.57  -999.99   -10.57      0.0000      0.00 LINEAR  2.9965E-01     54.57  0.0000E+00      0.00
   90.00    195.00    -10.35  -999.99   -10.35      0.0000      0.00 LINEAR  3.0741E-01     55.17  0.0000E+00      0.00
   90.00    196.00    -10.13  -999.99   -10.13      0.0000      0.00 LINEAR  3.1542E-01     55.88  0.0000E+00      0.00
   90.00    197.00     -9.91  -999.99    -9.91      0.0000      0.00 LINEAR  3.2360E-01     56.69  0.0000E+00      0.00
   90.00    198.00     -9.69  -999.99    -9.69      0.0000      0.00 LINEAR  3.3185E-01     57.62  0.0000E+00      0.00
   90.00    199.00     -9.48  -999.99    -9.48      0.0000      0.00 LINEAR  3.4003E-01     58.65  0.0000E+00      0.00
   90.00    200.00     -9.27  -999.99    -9.27      0.0000      0.00 LINEAR  3.4804E-01     59.78  0.0000E+00      0.00
   90.00    201.00     -9.08  -999.99    -9.08      0.0000      0.00 LINEAR  3.5573E-01     61.00  0.0000E+00      0.00
   90.00    202.00     -8.91  -999.99    -8.91      0.0000      0.00 LINEAR  3.6297E-01     62.31  0.0000E+00      0.00
   90.00    203.00     -8.75  -999.99    -8.75      0.0000      0.00 LINEAR  3.6961E-01     63.69  0.0000E+00      0.00
   90.00    204.00     -8.61  -999.99    -8.61      0.0000      0.00 LINEAR  3.7552E-01     65.11  0.0000E+00      0.00
   90.00    205.00     -8.50  -999.99    -8.50      0.0000      0.00 LINEAR  3.8058E-01     66.58  0.0000E+00      0.00
   90.00    206.00     -8.41  -999.99    -8.41      0.0000      0.00 LINEAR  3.8468E-01     68.05  0.0000E+00      0.00
   90.00    207.00     -8.34  -999.99    -8.34      0.0000      0.00 LINEAR  3.8774E-01     69.51  0.0000E+00      0.00
   90.00    208.00     -8.29  -999.99    -8.29      0.0000      0.00 LINEAR  3.8973E-01     70.92  0.0000E+00      0.00
   90.00    209.00     -8.27  -999.99    -8.27      0.0000      0.00 LINEAR  3.9066E-01     72.26  0.0000E+00      0.00
   90.00    210.00     -8.27  -999.99    -8.27      0.0000      0.00 LINEAR  3.9060E-01     73.49  0.0000E+00      0.00
   90.00    211.00     -8.29  -999.99    -8.29      0.0000      0.00 LINEAR  3.8970E-01     74.58  0.0000E+00      0.00
   90.00    212.00     -8.33  -999.99    -8.33      0.0000      0.00 LINEAR  3.8817E-01     75.49  0.0000E+00      0.00
   90.00    213.00     -8.37  -999.99    -8.37      0.0000      0.00 LINEAR  3.8634E-01     76.20  0.0000E+00      0.00
   90.00    214.00     -8.41  -999.99    -8.41      0.0000      0.00 LINEAR  3.8458E-01     76.69  0.0000E+00      0.00
   90.00    215.00     -8.44  -999.99    -8.44      0.0000      0.00 LINEAR  3.8335E-01     76.97  0.0000E+00      0.00
   90.00    216.00     -8.44  -999.99    -8.44      0.0000      0.00 LINEAR  3.8311E-01     77.07  0.0000E+00      0.00
   90.00    217.00     -8.41  -999.99    -8.41      0.0000      0.00 LINEAR  3.8433E-01     77.03  0.0000E+00      0.00
   90.00    218.00     -8.35  -999.99    -8.35      0.0000      0.00 LINEAR  3.8735E-01     76.94  0.0000E+00      0.00
   90.00    219.00     -8.23  -999.99    -8.23      0.0000      0.00 LINEAR  3.9239E-01     76.91  0.0000E+00      0.00
   90.00    220.00     -8.08  -999.99    -8.08      0.0000      0.00 LINEAR  3.9942E-01     77.04  0.0000E+00      0.00
   90.00    221.00     -7.89  -999.99    -7.89      0.0000      0.00 LINEAR  4.0818E-01     77.45  0.0000E+00      0.00
   90.00    222.00     -7.68  -999.99    -7.68      0.0000      0.00 LINEAR  4.1815E-01     78.23  0.0000E+00      0.00
   90.00    223.00     -7.47  -999.99    -7.47      0.0000      0.00 LINEAR  4.2855E-01     79.44  0.0000E+00      0.00
   90.00    224.00     -7.27  -999.99    -7.27      0.0000      0.00 LINEAR  4.3846E-01     81.11  0.0000E+00      0.00
   90.00    225.00     -7.11  -999.99    -7.11      0.0000      0.00 LINEAR  4.4679E-01     83.24  0.0000E+00      0.00
   90.00    226.00     -7.00  -999.99    -7.00      0.0000      0.00 LINEAR  4.5241E-01     85.83  0.0000E+00      0.00
   90.00    227.00     -6.96  -999.99    -6.96      0.0000      0.00 LINEAR  4.5421E-01     88.81  0.0000E+00      0.00
   90.00    228.00     -7.02  -999.99    -7.02      0.0000      0.00 LINEAR  4.5110E-01     92.13  0.0000E+00      0.00
   90.00    229.00     -7.20  -999.99    -7.20      0.0000      0.00 LINEAR  4.4214E-01     95.72  0.0000E+00      0.00
   90.00    230.00     -7.51  -999.99    -7.51      0.0000      0.00 LINEAR  4.2655E-01     99.47  0.0000E+00      0.00
   90.00    231.00     -7.98  -999.99    -7.98      0.0000      0.00 LINEAR  4.0377E-01    103.24  0.0000E+00      0.00
   90.00    232.00     -8.66  -999.99    -8.66      0.0000      0.00 LINEAR  3.7356E-01    106.86  0.0000E+00      0.00
   90.00    233.00     -9.58  -999.99    -9.58      0.0000      0.00 LINEAR  3.3611E-01    110.02  0.0000E+00      0.00
   90.00    234.00    -10.79  -999.99   -10.79      0.0000      0.00 LINEAR  2.9216E-01    112.23  0.0000E+00      0.00
   90.00    235.00    -12.38  -999.99   -12.38      0.0000      0.00 LINEAR  2.4339E-01    112.56  0.0000E+00      0.00
   90.00    236.00    -14.38  -999.99   -14.38      0.0000      0.00 LINEAR  1.9330E-01    109.11  0.0000E+00      0.00
   90.00    237.00    -16.61  -999.99   -16.61      0.0000      0.00 LINEAR  1.4963E-01     98.21  0.0000E+00      0.00
   90.00    238.00    -17.94  -999.99   -17.94      0.0000      0.00 LINEAR  1.2834E-01     76.53  0.0000E+00      0.00
   90.00    239.00    -16.91  -999.99   -16.91      0.0000      0.00 LINEAR  1.4452E-01     53.15  0.0000E+00      0.00
   90.00    240.00    -14.59  -999.99   -14.59      0.0000      0.00 LINEAR  1.8883E-01     40.27  0.0000E+00      0.00
   90.00    241.00    -12.37  -999.99   -12.37      0.0000      0.00 LINEAR  2.4357E-01     36.17  0.0000E+00      0.00
   90.00    242.00    -10.62  -999.99   -10.62      0.0000      0.00 LINEAR  2.9815E-01     36.74  0.0000E+00      0.00
   90.00    243.00     -9.32  -999.99    -9.32      0.0000      0.00 LINEAR  3.4636E-01     39.72  0.0000E+00      0.00
   90.00    244.00     -8.43  -999.99    -8.43      0.0000      0.00 LINEAR  3.8377E-01     43.97  0.0000E+00      0.00
   90.00    245.00     -7.92  -999.99    -7.92      0.0000      0.00 LINEAR  4.0669E-01     48.81  0.0000E+00      0.00
   90.00    246.00     -7.81  -999.99    -7.81      0.0000      0.00 LINEAR  4.1207E-01     53.73  0.0000E+00      0.00
   90.00    247.00     -8.12  -999.99    -8.12      0.0000      0.00 LINEAR  3.9753E-01     58.15  0.0000E+00      0.00
   90.00    248.00     -8.93  -999.99    -8.93      0.0000      0.00 LINEAR  3.6197E-01     61.20  0.0000E+00      0.00
   90.00    249.00    -10.36  -999.99   -10.36      0.0000      0.00 LINEAR  3.0701E-01     61.00  0.0000E+00      0.00
   90.00    250.00    -12.42  -999.99   -12.42      0.0000      0.00 LINEAR  2.4220E-01     53.08  0.0000E+00      0.00
   90.00    251.00    -13.97  -999.99   -13.97      0.0000      0.00 LINEAR  2.0263E-01     29.30  0.0000E+00      0.00
   90.00    252.00    -12.05  -999.99   -12.05      0.0000      0.00 LINEAR  2.5286E-01     -0.76  0.0000E+00      0.00
   90.00    253.00     -8.22  -999.99    -8.22      0.0000      0.00 LINEAR  3.9308E-01    -14.46  0.0000E+00      0.00
   90.00    254.00     -4.75  -999.99    -4.75      0.0000      0.00 LINEAR  5.8565E-01    -16.50  0.0000E+00      0.00
   90.00    255.00     -1.91  -999.99    -1.91      0.0000      0.00 LINEAR  8.1245E-01    -13.37  0.0000E+00      0.00
   90.00    256.00      0.44  -999.99     0.44      0.0000      0.00 LINEAR  1.0649E+00     -7.74  0.0000E+00      0.00
   90.00    257.00      2.41  -999.99     2.41      0.0000      0.00 LINEAR  1.3368E+00     -0.75  0.0000E+00      0.00
   90.00    258.00      4.10  -999.99     4.10      0.0000      0.00 LINEAR  1.6224E+00      7.07  0.0000E+00      0.00
   90.00    259.00      5.54  -999.99     5.54      0.0000      0.00 LINEAR  1.9159E+00     15.45  0.0000E+00      0.00
   90.00    260.00      6.78  -999.99     6.78      0.0000      0.00 LINEAR  2.2111E+00     24.21  0.0000E+00      0.00
   90.00    261.00      7.86  -999.99     7.86      0.0000      0.00 LINEAR  2.5016E+00     33.26  0.0000E+00      0.00
   90.00    262.00      8.78  -999.99     8.78      0.0000      0.00 LINEAR  2.7811E+00     42.52  0.0000E+00      0.00
   90.00    263.00      9.56  -999.99     9.56      0.0000      0.00 LINEAR  3.0433E+00     51.96  0.0000E+00      0.00
   90.00    264.00     10.22  -999.99    10.22      0.0000      0.00 LINEAR  3.2821E+00     61.52  0.0000E+00      0.00
   90.00    265.00     10.75  -999.99    10.75      0.0000      0.00 LINEAR  3.4918E+00     71.20  0.0000E+00      0.00
   90.00    266.00     11.18  -999.99    11.18      0.0000      0.00 LINEAR  3.6677E+00     80.97  0.0000E+00      0.00
   90.00    267.00     11.50  -999.99    11.50      0.0000      0.00 LINEAR  3.8054E+00     90.81  0.0000E+00      0.00
   90.00    268.00     11.72  -999.99    11.72      0.0000      0.00 LINEAR  3.9018E+00    100.70  0.0000E+00      0.00
   90.00    269.00     11.83  -999.99    11.83      0.0000      0.00 LINEAR  3.9545E+00    110.64  0.0000E+00      0.00
   90.00    270.00     11.85  -999.99    11.85      0.0000      0.00 LINEAR  3.9625E+00    120.61  0.0000E+00      0.00
   90.00    271.00     11.77  -999.99    11.77      0.0000      0.00 LINEAR  3.9257E+00    130.61  0.0000E+00      0.00
   90.00    272.00     11.59  -999.99    11.59      0.0000      0.00 LINEAR  3.8453E+00    140.62  0.0000E+00      0.00
   90.00    273.00     11.31  -999.99    11.31      0.0000      0.00 LINEAR  3.7234E+00    150.63  0.0000E+00      0.00
   90.00    274.00     10.93  -999.99    10.93      0.0000      0.00 LINEAR  3.5632E+00    160.64  0.0000E+00      0.00
   90.00    275.00     10.44  -999.99    10.44      0.0000      0.00 LINEAR  3.3689E+00    170.63  0.0000E+00      0.00
   90.00    276.00      9.85  -999.99     9.85      0.0000      0.00 LINEAR  3.1452E+00   -179.40  0.0000E+00      0.00
   90.00    277.00      9.13  -999.99     9.13      0.0000      0.00 LINEAR  2.8977E+00   -169.47  0.0000E+00      0.00
   90.00    278.00      8.30  -999.99     8.30      0.0000      0.00 LINEAR  2.6320E+00   -159.59  0.0000E+00      0.00
   90.00    279.00      7.33  -999.99     7.33      0.0000      0.00 LINEAR  2.3543E+00   -149.77  0.0000E+00      0.00
   90.00    280.00      6.21  -999.99     6.21      0.0000      0.00 LINEAR  2.0706E+00   -140.05  0.0000E+00      0.00
   90.00    281.00      4.94  -999.99     4.94      0.0000      0.00 LINEAR  1.7870E+00   -130.44  0.0000E+00      0.00
   90.00    282.00      3.47  -999.99     3.47      0.0000      0.00 LINEAR  1.5090E+00   -120.99  0.0000E+00      0.00
   90.00    283.00      1.77  -999.99     1.77      0.0000      0.00 LINEAR  1.2418E+00   -111.77  0.0000E+00      0.00
   90.00    284.00     -0.19  -999.99    -0.19      0.0000      0.00 LINEAR  9.9001E-01   -102.88  0.0000E+00      0.00
   90.00    285.00     -2.52  -999.99    -2.52      0.0000      0.00 LINEAR  7.5760E-01    -94.53  0.0000E+00      0.00
   90.00    286.00     -5.33  -999.99    -5.33      0.0000      0.00 LINEAR  5.4791E-01    -87.15  0.0000E+00      0.00
   90.00    287.00     -8.89  -999.99    -8.89      0.0000      0.00 LINEAR  3.6395E-01    -81.80  0.0000E+00      0.00
   90.00    288.00    -13.68  -999.99   -13.68      0.0000      0.00 LINEAR  2.0965E-01    -81.95  0.0000E+00      0.00
   90.00    289.00    -20.17  -999.99   -20.17      0.0000      0.00 LINEAR  9.9314E-02   -103.64  0.0000E+00      0.00
   90.00    290.00    -20.63  -999.99   -20.63      0.0000      0.00 LINEAR  9.4159E-02   -162.51  0.0000E+00      0.00
   90.00    291.00    -16.29  -999.99   -16.29      0.0000      0.00 LINEAR  1.5523E-01    179.72  0.0000E+00      0.00
   90.00    292.00    -13.73  -999.99   -13.73      0.0000      0.00 LINEAR  2.0841E-01   -179.47  0.0000E+00      0.00
   90.00    293.00    -12.38  -999.99   -12.38      0.0000      0.00 LINEAR  2.4341E-01   -173.71  0.0000E+00      0.00
   90.00    294.00    -11.80  -999.99   -11.80      0.0000      0.00 LINEAR  2.6034E-01   -165.95  0.0000E+00      0.00
   90.00    295.00    -11.77  -999.99   -11.77      0.0000      0.00 LINEAR  2.6121E-01   -157.07  0.0000E+00      0.00
   90.00    296.00    -12.19  -999.99   -12.19      0.0000      0.00 LINEAR  2.4867E-01   -147.29  0.0000E+00      0.00
   90.00    297.00    -13.04  -999.99   -13.04      0.0000      0.00 LINEAR  2.2568E-01   -136.55  0.0000E+00      0.00
   90.00    298.00    -14.29  -999.99   -14.29      0.0000      0.00 LINEAR  1.9541E-01   -124.47  0.0000E+00      0.00
   90.00    299.00    -15.96  -999.99   -15.96      0.0000      0.00 LINEAR  1.6128E-01   -110.24  0.0000E+00      0.00
   90.00    300.00    -18.01  -999.99   -18.01      0.0000      0.00 LINEAR  1.2735E-01    -92.24  0.0000E+00      0.00
   90.00    301.00    -20.18  -999.99   -20.18      0.0000      0.00 LINEAR  9.9223E-02    -67.77  0.0000E+00      0.00
   90.00    302.00    -21.55  -999.99   -21.55      0.0000      0.00 LINEAR  8.4675E-02    -35.34  0.0000E+00      0.00
   90.00    303.00    -21.17  -999.99   -21.17      0.0000      0.00 LINEAR  8.8532E-02     -1.84  0.0000E+00      0.00
   90.00    304.00    -19.67  -999.99   -19.67      0.0000      0.00 LINEAR  1.0517E-01     23.91  0.0000E+00      0.00
   90.00    305.00    -18.11  -999.99   -18.11      0.0000      0.00 LINEAR  1.2583E-01     41.97  0.0000E+00      0.00
   90.00    306.00    -16.86  -999.99   -16.86      0.0000      0.00 LINEAR  1.4539E-01     55.16  0.0000E+00      0.00
   90.00    307.00    -15.94  -999.99   -15.94      0.0000      0.00 LINEAR  1.6153E-01     65.37  0.0000E+00      0.00
   90.00    308.00    -15.33  -999.99   -15.33      0.0000      0.00 LINEAR  1.7339E-01     73.55  0.0000E+00      0.00
   90.00    309.00    -14.96  -999.99   -14.96      0.0000      0.00 LINEAR  1.8085E-01     80.18  0.0000E+00      0.00
   90.00    310.00    -14.80  -999.99   -14.80      0.0000      0.00 LINEAR  1.8425E-01     85.49  0.0000E+00      0.00
   90.00    311.00    -14.80  -999.99   -14.80      0.0000      0.00 LINEAR  1.8425E-01     89.56  0.0000E+00      0.00
   90.00    312.00    -14.92  -999.99   -14.92      0.0000      0.00 LINEAR  1.8174E-01     92.43  0.0000E+00      0.00
   90.00    313.00    -15.11  -999.99   -15.11      0.0000      0.00 LINEAR  1.7775E-01     94.10  0.0000E+00      0.00
   90.00    314.00    -15.33  -999.99   -15.33      0.0000      0.00 LINEAR  1.7339E-01     94.62  0.0000E+00      0.00
   90.00    315.00    -15.51  -999.99   -15.51      0.0000      0.00 LINEAR  1.6968E-01     94.11  0.0000E+00      0.00
   90.00    316.00    -15.63  -999.99   -15.63      0.0000      0.00 LINEAR  1.6745E-01     92.81  0.0000E+00      0.00
   90.00    317.00    -15.64  -999.99   -15.64      0.0000      0.00 LINEAR  1.6722E-01     91.05  0.0000E+00      0.00
   90.00    318.00    -15.55  -999.99   -15.55      0.0000      0.00 LINEAR  1.6907E-01     89.19  0.0000E+00      0.00
   90.00    319.00    -15.36  -999.99   -15.36      0.0000      0.00 LINEAR  1.7273E-01     87.55  0.0000E+00      0.00
   90.00    320.00    -15.12  -999.99   -15.12      0.0000      0.00 LINEAR  1.7766E-01     86.34  0.0000E+00      0.00
   90.00    321.00    -14.85  -999.99   -14.85      0.0000      0.00 LINEAR  1.8318E-01     85.64  0.0000E+00      0.00
   90.00    322.00    -14.59  -999.99   -14.59      0.0000      0.00 LINEAR  1.8866E-01     85.42  0.0000E+00      0.00
   90.00    323.00    -14.37  -999.99   -14.37      0.0000      0.00 LINEAR  1.9354E-01     85.62  0.0000E+00      0.00
   90.00    324.00    -14.20  -999.99   -14.20      0.0000      0.00 LINEAR  1.9740E-01     86.12  0.0000E+00      0.00
   90.00    325.00    -14.09  -999.99   -14.09      0.0000      0.00 LINEAR  1.9998E-01     86.81  0.0000E+00      0.00
   90.00    326.00    -14.04  -999.99   -14.04      0.0000      0.00 LINEAR  2.0110E-01     87.58  0.0000E+00      0.00
   90.00    327.00    -14.05  -999.99   -14.05      0.0000      0.00 LINEAR  2.0076E-01     88.33  0.0000E+00      0.00
   90.00    328.00    -14.13  -999.99   -14.13      0.0000      0.00 LINEAR  1.9901E-01     88.95  0.0000E+00      0.00
   90.00    329.00    -14.26  -999.99   -14.26      0.0000      0.00 LINEAR  1.9602E-01     89.37  0.0000E+00      0.00
   90.00    330.00    -14.44  -999.99   -14.44      0.0000      0.00 LINEAR  1.9200E-01     89.50  0.0000E+00      0.00
   90.00    331.00    -14.66  -999.99   -14.66      0.0000      0.00 LINEAR  1.8724E-01     89.27  0.0000E+00      0.00
   90.00    332.00    -14.90  -999.99   -14.90      0.0000      0.00 LINEAR  1.8206E-01     88.62  0.0000E+00      0.00
   90.00    333.00    -15.16  -999.99   -15.16      0.0000      0.00 LINEAR  1.7681E-01     87.50  0.0000E+00      0.00
   90.00    334.00    -15.40  -999.99   -15.40      0.0000      0.00 LINEAR  1.7185E-01     85.91  0.0000E+00      0.00
   90.00    335.00    -15.63  -999.99   -15.63      0.0000      0.00 LINEAR  1.6752E-01     83.84  0.0000E+00      0.00
   90.00    336.00    -15.80  -999.99   -15.80      0.0000      0.00 LINEAR  1.6413E-01     81.36  0.0000E+00      0.00
   90.00    337.00    -15.92  -999.99   -15.92      0.0000      0.00 LINEAR  1.6194E-01     78.54  0.0000E+00      0.00
   90.00    338.00    -15.97  -999.99   -15.97      0.0000      0.00 LINEAR  1.6109E-01     75.52  0.0000E+00      0.00
   90.00    339.00    -15.94  -999.99   -15.94      0.0000      0.00 LINEAR  1.6165E-01     72.44  0.0000E+00      0.00
   90.00    340.00    -15.83  -999.99   -15.83      0.0000      0.00 LINEAR  1.6358E-01     69.42  0.0000E+00      0.00
   90.00    341.00    -15.67  -999.99   -15.67      0.0000      0.00 LINEAR  1.6674E-01     66.58  0.0000E+00      0.00
   90.00    342.00    -15.45  -999.99   -15.45      0.0000      0.00 LINEAR  1.7096E-01     64.02  0.0000E+00      0.00
   90.00    343.00    -15.20  -999.99   -15.20      0.0000      0.00 LINEAR  1.7601E-01     61.76  0.0000E+00      0.00
   90.00    344.00    -14.92  -999.99   -14.92      0.0000      0.00 LINEAR  1.8167E-01     59.83  0.0000E+00      0.00
   90.00    345.00    -14.64  -999.99   -14.64      0.0000      0.00 LINEAR  1.8771E-01     58.22  0.0000E+00      0.00
   90.00    346.00    -14.35  -999.99   -14.35      0.0000      0.00 LINEAR  1.9394E-01     56.90  0.0000E+00      0.00
   90.00    347.00    -14.08  -999.99   -14.08      0.0000      0.00 LINEAR  2.0020E-01     55.84  0.0000E+00      0.00
   90.00    348.00    -13.82  -999.99   -13.82      0.0000      0.00 LINEAR  2.0634E-01     55.00  0.0000E+00      0.00
   90.00    349.00    -13.57  -999.99   -13.57      0.0000      0.00 LINEAR  2.1224E-01     54.36  0.0000E+00      0.00
   90.00    350.00    -13.35  -999.99   -13.35      0.0000      0.00 LINEAR  2.1781E-01     53.86  0.0000E+00      0.00
   90.00    351.00    -13.14  -999.99   -13.14      0.0000      0.00 LINEAR  2.2298E-01     53.50  0.0000E+00      0.00
   90.00    352.00    -12.96  -999.99   -12.96      0.0000      0.00 LINEAR  2.2771E-01     53.23  0.0000E+00      0.00
   90.00    353.00    -12.80  -999.99   -12.80      0.0000      0.00 LINEAR  2.3193E-01     53.05  0.0000E+00      0.00
   90.00    354.00    -12.66  -999.99   -12.66      0.0000      0.00 LINEAR  2.3564E-01     52.92  0.0000E+00      0.00
   90.00    355.00    -12.55  -999.99   -12.55      0.0000      0.00 LINEAR  2.3880E-01     52.83  0.0000E+00      0.00
   90.00    356.00    -12.45  -999.99   -12.45      0.0000      0.00 LINEAR  2.4140E-01     52.78  0.0000E+00      0.00
   90.00    357.00    -12.38  -999.99   -12.38      0.0000      0.00 LINEAR  2.4343E-01     52.75  0.0000E+00      0.00
   90.00    358.00    -12.33  -999.99   -12.33      0.0000      0.00 LINEAR  2.4488E-01     52.73  0.0000E+00      0.00
   90.00    359.00    -12.30  -999.99   -12.30      0.0000      0.00 LINEAR  2.4576E-01     52.72  0.0000E+00      0.00
   90.00    360.00    -12.29  -999.99   -12.29      0.0000      0.00 LINEAR  2.4605E-01     52.72  0.0000E+00      0.00








*****  DATA CARD N0.  13 EN   0     1   361  1000 9.00000E+001 0.00000E+000 0.00000E+000 1.00000E+000 0.00000E+000 0.00000E+000

  TOTAL RUN TIME: 18 msec