


                                __________________________________________
                               |                                          |
                               | NUMERICAL ELECTROMAGNETICS CODE (nec2++) |
                               | Translated to 'C++' in Double Precision  |
                               |        Version 1.5.4 [2014-12-06]        |
                               |__________________________________________|



                               ---------------- COMMENTS ----------------
                                forw: 90, 0 ; back: 0, 0
                               



                                -------- STRUCTURE SPECIFICATION --------
                                COORDINATES MUST BE INPUT IN
                                METERS OR BE SCALED TO METERS
                                BEFORE STRUCTURE INPUT IS ENDED
  WIRE                                                                                 SEG FIRST  LAST  TAG
   No:        X1         Y1         Z1         X2         Y2         Z2       RADIUS   No:   SEG   SEG  No:

     1      0.0000     0.0000     0.0000     0.0000     0.0000     0.0582     0.0004     7     1     7    1
     2      0.0625     0.0000     0.0000     0.0625     0.0000     0.0582     0.0004     7     8    14    2
     3      0.1250     0.0000     0.0000     0.1250     0.0000     0.0582     0.0004     7    15    21    3
     4      0.1875     0.0000     0.0000     0.1875     0.0000     0.0582     0.0004     7    22    28    4
     5      0.2500     0.0000     0.0000     0.2500     0.0000     0.0582     0.0004     7    29    35    5
     6      0.3125     0.0000     0.0000     0.3125     0.0000     0.0582     0.0004     7    36    42    6
     7      0.3750     0.0000     0.0000     0.3750     0.0000     0.0582     0.0004     7    43    49    7
     8      0.4375     0.0000     0.0000     0.4375     0.0000     0.0582     0.0004     7    50    56    8

     TOTAL SEGMENTS USED: 56   SEGMENTS IN A SYMMETRIC CELL: 56   SYMMETRY FLAG: 0


                               ---------- SEGMENTATION DATA ----------
                                        COORDINATES IN METERS
                            I+ AND I- INDICATE THE SEGMENTS BEFORE AND AFTER I

   SEG    COORDINATES OF SEGM CENTER     SEGM    ORIENTATION ANGLES    WIRE    CONNECTION DATA   TAG
   No:       X         Y         Z      LENGTH     ALPHA      BETA    RADIUS    I-     I    I+   NO:
     1    0.0000    0.0000    0.0042    0.0083   90.0000    0.0000    0.0004     0     1     2     1
     2    0.0000    0.0000    0.0125    0.0083   90.0000    0.0000    0.0004     1     2     3     1
     3    0.0000    0.0000    0.0208    0.0083   90.0000    0.0000    0.0004     2     3     4     1
     4    0.0000    0.0000    0.0291    0.0083   90.0000    0.0000    0.0004     3     4     5     1
     5    0.0000    0.0000    0.0374    0.0083   90.0000    0.0000    0.0004     4     5     6     1
     6    0.0000    0.0000    0.0457    0.0083   90.0000    0.0000    0.0004     5     6     7     1
     7    0.0000    0.0000    0.0540    0.0083   90.0000    0.0000    0.0004     6     7     0     1
     8    0.0625    0.0000    0.0042    0.0083   90.0000    0.0000    0.0004     0     8     9     2
     9    0.0625    0.0000    0.0125    0.0083   90.0000    0.0000    0.0004     8     9    10     2
    10    0.0625    0.0000    0.0208    0.0083   90.0000    0.0000    0.0004     9    10    11     2
    11    0.0625    0.0000    0.0291    0.0083   90.0000    0.0000    0.0004    10    11    12     2
    12    0.0625    0.0000    0.0374    0.0083   90.0000    0.0000    0.0004    11    12    13     2
    13    0.0625    0.0000    0.0457    0.0083   90.0000    0.0000    0.0004    12    13    14     2
    14    0.0625    0.0000    0.0540    0.0083   90.0000    0.0000    0.0004    13    14     0     2
    15    0.1250    0.0000    0.0042    0.0083   90.0000    0.0000    0.0004     0    15    16     3
    16    0.1250    0.0000    0.0125    0.0083   90.0000    0.0000    0.0004    15    16    17     3
    17    0.1250    0.0000    0.0208    0.0083   90.0000    0.0000    0.0004    16    17    18     3
    18    0.1250    0.0000    0.0291    0.0083   90.0000    0.0000    0.0004    17    18    19     3
    19    0.1250    0.0000    0.0374    0.0083   90.0000    0.0000    0.0004    18    19    20     3
    20    0.1250    0.0000    0.0457    0.0083   90.0000    0.0000    0.0004    19    20    21     3
    21    0.1250    0.0000    0.0540    0.0083   90.0000    0.0000    0.0004    20    21     0     3
    22    0.1875    0.0000    0.0042    0.0083   90.0000    0.0000    0.0004     0    22    23     4
    23    0.1875    0.0000    0.0125    0.0083   90.0000    0.0000    0.0004    22    23    24     4
    24    0.1875    0.0000    0.0208    0.0083   90.0000    0.0000    0.0004    23    24    25     4
    25    0.1875    0.0000    0.0291    0.0083   90.0000    0.0000    0.0004    24    25    26     4
    26    0.1875    0.0000    0.0374    0.0083   90.0000    0.0000    0.0004    25    26    27     4
    27    0.1875    0.0000    0.0457    0.0083   90.0000    0.0000    0.0004    26    27    28     4
    28    0.1875    0.0000    0.0540    0.0083   90.0000    0.0000    0.0004    27    28     0     4
    29    0.2500    0.0000    0.0042    0.0083   90.0000    0.0000    0.0004     0    29    30     5
    30    0.2500    0.0000    0.0125    0.0083   90.0000    0.0000    0.0004    29    30    31     5
    31    0.2500    0.0000    0.0208    0.0083   90.0000    0.0000    0.0004    30    31    32     5
    32    0.2500    0.0000    0.0291    0.0083   90.0000    0.0000    0.0004    31    32    33     5
    33    0.2500    0.0000    0.0374    0.0083   90.0000    0.0000    0.0004    32    33    34     5
    34    0.2500    0.0000    0.0457    0.0083   90.0000    0.0000    0.0004    33    34    35     5
    35    0.2500    0.0000    0.0540    0.0083   90.0000    0.0000    0.0004    34    35     0     5
    36    0.3125    0.0000    0.0042    0.0083   90.0000    0.0000    0.0004     0    36    37     6
    37    0.3125    0.0000    0.0125    0.0083   90.0000    0.0000    0.0004    36    37    38     6
    38    0.3125    0.0000    0.0208    0.0083   90.0000    0.0000    0.0004    37    38    39     6
    39    0.3125    0.0000    0.0291    0.0083   90.0000    0.0000    0.0004    38    39    40     6
    40    0.3125    0.0000    0.0374    0.0083   90.0000    0.0000    0.0004    39    40    41     6
    41    0.3125    0.0000    0.0457    0.0083   90.0000    0.0000    0.0004    40    41    42     6
    42    0.3125    0.0000    0.0540    0.0083   90.0000    0.0000    0.0004    41    42     0     6
    43    0.3750    0.0000    0.0042    0.0083   90.0000    0.0000    0.0004     0    43    44     7
    44    0.3750    0.0000    0.0125    0.0083   90.0000    0.0000    0.0004    43    44    45     7
    45    0.3750    0.0000    0.0208    0.0083   90.0000    0.0000    0.0004    44    45    46     7
    46    0.3750    0.0000    0.0291    0.0083   90.0000    0.0000    0.0004    45    46    47     7
    47    0.3750    0.0000    0.0374    0.0083   90.0000    0.0000    0.0004    46    47    48     7
    48    0.3750    0.0000    0.0457    0.0083   90.0000    0.0000    0.0004    47    48    49     7
    49    0.3750    0.0000    0.0540    0.0083   90.0000    0.0000    0.0004    48    49     0     7
    50    0.4375    0.0000    0.0042    0.0083   90.0000    0.0000    0.0004     0    50    51     8
    51    0.4375    0.0000    0.0125    0.0083   90.0000    0.0000    0.0004    50    51    52     8
    52    0.4375    0.0000    0.0208    0.0083   90.0000    0.0000    0.0004    51    52    53     8
    53    0.4375    0.0000    0.0291    0.0083   90.0000    0.0000    0.0004    52    53    54     8
    54    0.4375    0.0000    0.0374    0.0083   90.0000    0.0000    0.0004    53    54    55     8
    55    0.4375    0.0000    0.0457    0.0083   90.0000    0.0000    0.0004    54    55    56     8
    56    0.4375    0.0000    0.0540    0.0083   90.0000    0.0000    0.0004    55    56     0     8



*****  DATA CARD N0.   1 EK   0     0     0     0 0.00000E+000 0.00000E+000 0.00000E+000 0.00000E+000 0.00000E+000 0.00000E+000
*****  DATA CARD N0.   2 EX   0     1     4     0 6.02247E-001 0.00000E+000 0.00000E+000 0.00000E+000 0.00000E+000 0.00000E+000
*****  DATA CARD N0.   3 EX   0     2     4     0 5.14147E-001 0.00000E+000 0.00000E+000 0.00000E+000 0.00000E+000 0.00000E+000
*****  DATA CARD N0.   4 EX   0     3     4     0 7.35904E-001 0.00000E+000 0.00000E+000 0.00000E+000 0.00000E+000 0.00000E+000
*****  DATA CARD N0.   5 EX   0     4     4     0 8.85496E-001 0.00000E+000 0.00000E+000 0.00000E+000 0.00000E+000 0.00000E+000
*****  DATA CARD N0.   6 EX   0     5     4     0 8.52255E-001 0.00000E+000 0.00000E+000 0.00000E+000 0.00000E+000 0.00000E+000
*****  DATA CARD N0.   7 EX   0     6     4     0 7.58657E-001 0.00000E+000 0.00000E+000 0.00000E+000 0.00000E+000 0.00000E+000
*****  DATA CARD N0.   8 EX   0     7     4     0 4.96800E-001 0.00000E+000 0.00000E+000 0.00000E+000 0.00000E+000 0.00000E+000
*****  DATA CARD N0.   9 EX   0     8     4     0 4.79589E-001 0.00000E+000 0.00000E+000 0.00000E+000 0.00000E+000 0.00000E+000
*****  DATA CARD N0.  10 GN  -1     0     0     0 0.00000E+000 0.00000E+000 0.00000E+000 0.00000E+000 0.00000E+000 0.00000E+000
*****  DATA CARD N0.  11 FR   0     1     0     0 2.40000E+003 0.00000E+000 0.00000E+000 0.00000E+000 0.00000E+000 0.00000E+000
*****  DATA CARD N0.  12 RP   0     1   361  1000 9.00000E+001 0.00000E+000 0.00000E+000 1.00000E+000 0.00000E+000 0.00000E+000


                               --------- FREQUENCY --------
                               FREQUENCY= 2.4000E+003 MHZ
                               WAVELENGTH=1.2491E-001 METERS


                        APPROXIMATE INTEGRATION EMPLOYED FOR SEGMENTS
                        THAT ARE MORE THAN 1.000 WAVELENGTHS APART
                        THE EXTENDED THIN WIRE KERNEL WILL BE USED



                          ------ STRUCTURE IMPEDANCE LOADING ------
                                 THIS STRUCTURE IS NOT LOADED



                            -------- ANTENNA ENVIRONMENT --------
                            FREE SPACE



                             ---------- MATRIX TIMING ----------
                               FILL= 3 msec  FACTOR: 0 msec


                      ----- ANTENNA INPUT PARAMETERS -----
  TAG   SEG       VOLTAGE (VOLTS)         CURRENT (AMPS)         IMPEDANCE (OHMS)        ADMITTANCE (MHOS)     POWER
  NO.   NO.     REAL      IMAGINARY     REAL      IMAGINARY     REAL      IMAGINARY    REAL       IMAGINARY   (WATTS)
   1     4  6.0225E-01  0.0000E+00  8.0378E-03  2.9903E-03  6.5817E+01 -2.4486E+01  1.3346E-02  4.9653E-03  2.4204E-03
   2    11  5.1415E-01  0.0000E+00  7.5987E-03  6.3193E-03  3.9999E+01 -3.3264E+01  1.4779E-02  1.2291E-02  1.9534E-03
   3    18  7.3590E-01  0.0000E+00  9.6744E-03  6.5546E-03  5.2135E+01 -3.5323E+01  1.3146E-02  8.9069E-03  3.5597E-03
   4    25  8.8550E-01  0.0000E+00  1.2251E-02  8.0724E-03  5.0398E+01 -3.3207E+01  1.3835E-02  9.1162E-03  5.4242E-03
   5    32  8.5226E-01  0.0000E+00  1.1834E-02  8.1307E-03  4.8922E+01 -3.3612E+01  1.3886E-02  9.5403E-03  5.0430E-03
   6    39  7.5866E-01  0.0000E+00  1.0030E-02  6.5612E-03  5.2971E+01 -3.4651E+01  1.3221E-02  8.6484E-03  3.8047E-03
   7    46  4.9680E-01  0.0000E+00  7.2599E-03  5.8519E-03  4.1480E+01 -3.3435E+01  1.4613E-02  1.1779E-02  1.8034E-03
   8    53  4.7959E-01  0.0000E+00  6.3833E-03  2.6244E-03  6.4269E+01 -2.6423E+01  1.3310E-02  5.4721E-03  1.5307E-03







                        ----- CURRENTS AND LOCATION -----
                            DISTANCES IN WAVELENGTHS 

   SEG  TAG    COORDINATES OF SEGM CENTER     SEGM    ------------- CURRENT (AMPS) -------------
   No:  No:       X         Y         Z      LENGTH     REAL      IMAGINARY    MAGN        PHASE
     1    1    0.0000    0.0000    0.0333   0.06655  2.2839E-03  5.3559E-04  2.3458E-03   13.198 
     2    1    0.0000    0.0000    0.0998   0.06655  5.4070E-03  1.4497E-03  5.5980E-03   15.009 
     3    1    0.0000    0.0000    0.1664   0.06655  7.3587E-03  2.3242E-03  7.7170E-03   17.529 
     4    1    0.0000    0.0000    0.2329   0.06655  8.0378E-03  2.9903E-03  8.5761E-03   20.407 
     5    1    0.0000    0.0000    0.2995   0.06655  7.3587E-03  2.3242E-03  7.7170E-03   17.529 
     6    1    0.0000    0.0000    0.3660   0.06655  5.4070E-03  1.4497E-03  5.5980E-03   15.009 
     7    1    0.0000    0.0000    0.4326   0.06655  2.2839E-03  5.3559E-04  2.3458E-03   13.198 
     8    2    0.5003    0.0000    0.0333   0.06655  2.1631E-03  1.5310E-03  2.6501E-03   35.290 
     9    2    0.5003    0.0000    0.0998   0.06655  5.1158E-03  3.7749E-03  6.3578E-03   36.423 
    10    2    0.5003    0.0000    0.1664   0.06655  6.9581E-03  5.4336E-03  8.8283E-03   37.987 
    11    2    0.5003    0.0000    0.2329   0.06655  7.5987E-03  6.3193E-03  9.8830E-03   39.748 
    12    2    0.5003    0.0000    0.2995   0.06655  6.9581E-03  5.4336E-03  8.8283E-03   37.987 
    13    2    0.5003    0.0000    0.3660   0.06655  5.1158E-03  3.7749E-03  6.3578E-03   36.423 
    14    2    0.5003    0.0000    0.4326   0.06655  2.1631E-03  1.5310E-03  2.6501E-03   35.290 
    15    3    1.0007    0.0000    0.0333   0.06655  2.7531E-03  1.4819E-03  3.1266E-03   28.291 
    16    3    1.0007    0.0000    0.0998   0.06655  6.5124E-03  3.7261E-03  7.5029E-03   29.776 
    17    3    1.0007    0.0000    0.1664   0.06655  8.8584E-03  5.4967E-03  1.0425E-02   31.820 
    18    3    1.0007    0.0000    0.2329   0.06655  9.6744E-03  6.5546E-03  1.1686E-02   34.118 
    19    3    1.0007    0.0000    0.2995   0.06655  8.8584E-03  5.4967E-03  1.0425E-02   31.820 
    20    3    1.0007    0.0000    0.3660   0.06655  6.5124E-03  3.7261E-03  7.5029E-03   29.776 
    21    3    1.0007    0.0000    0.4326   0.06655  2.7531E-03  1.4819E-03  3.1266E-03   28.291 
    22    4    1.5010    0.0000    0.0333   0.06655  3.4847E-03  1.8359E-03  3.9387E-03   27.783 
    23    4    1.5010    0.0000    0.0998   0.06655  8.2451E-03  4.6083E-03  9.4455E-03   29.201 
    24    4    1.5010    0.0000    0.1664   0.06655  1.1217E-02  6.7838E-03  1.3109E-02   31.164 
    25    4    1.5010    0.0000    0.2329   0.06655  1.2251E-02  8.0724E-03  1.4672E-02   33.381 
    26    4    1.5010    0.0000    0.2995   0.06655  1.1217E-02  6.7838E-03  1.3109E-02   31.164 
    27    4    1.5010    0.0000    0.3660   0.06655  8.2451E-03  4.6083E-03  9.4455E-03   29.201 
    28    4    1.5010    0.0000    0.4326   0.06655  3.4847E-03  1.8359E-03  3.9387E-03   27.783 
    29    5    2.0014    0.0000    0.0333   0.06655  3.3669E-03  1.8700E-03  3.8514E-03   29.048 
    30    5    2.0014    0.0000    0.0998   0.06655  7.9655E-03  4.6787E-03  9.2379E-03   30.429 
    31    5    2.0014    0.0000    0.1664   0.06655  1.0836E-02  6.8601E-03  1.2825E-02   32.337 
    32    5    2.0014    0.0000    0.2329   0.06655  1.1834E-02  8.1307E-03  1.4358E-02   34.491 
    33    5    2.0014    0.0000    0.2995   0.06655  1.0836E-02  6.8601E-03  1.2825E-02   32.337 
    34    5    2.0014    0.0000    0.3660   0.06655  7.9655E-03  4.6787E-03  9.2379E-03   30.429 
    35    5    2.0014    0.0000    0.4326   0.06655  3.3669E-03  1.8700E-03  3.8514E-03   29.048 
    36    6    2.5017    0.0000    0.0333   0.06655  2.8536E-03  1.4718E-03  3.2107E-03   27.283 
    37    6    2.5017    0.0000    0.0998   0.06655  6.7510E-03  3.7091E-03  7.7028E-03   28.785 
    38    6    2.5017    0.0000    0.1664   0.06655  9.1839E-03  5.4871E-03  1.0698E-02   30.857 
    39    6    2.5017    0.0000    0.2329   0.06655  1.0030E-02  6.5612E-03  1.1986E-02   33.190 
    40    6    2.5017    0.0000    0.2995   0.06655  9.1839E-03  5.4871E-03  1.0698E-02   30.857 
    41    6    2.5017    0.0000    0.3660   0.06655  6.7510E-03  3.7091E-03  7.7028E-03   28.785 
    42    6    2.5017    0.0000    0.4326   0.06655  2.8536E-03  1.4718E-03  3.2107E-03   27.283 
    43    7    3.0020    0.0000    0.0333   0.06655  2.0665E-03  1.4069E-03  2.5000E-03   34.248 
    44    7    3.0020    0.0000    0.0998   0.06655  4.8876E-03  3.4764E-03  5.9979E-03   35.423 
    45    7    3.0020    0.0000    0.1664   0.06655  6.6478E-03  5.0175E-03  8.3288E-03   37.044 
    46    7    3.0020    0.0000    0.2329   0.06655  7.2599E-03  5.8519E-03  9.3248E-03   38.871 
    47    7    3.0020    0.0000    0.2995   0.06655  6.6478E-03  5.0175E-03  8.3288E-03   37.044 
    48    7    3.0020    0.0000    0.3660   0.06655  4.8876E-03  3.4764E-03  5.9979E-03   35.423 
    49    7    3.0020    0.0000    0.4326   0.06655  2.0665E-03  1.4069E-03  2.5000E-03   34.248 
    50    8    3.5024    0.0000    0.0333   0.06655  1.8142E-03  4.9576E-04  1.8807E-03   15.284 
    51    8    3.5024    0.0000    0.0998   0.06655  4.2945E-03  1.3182E-03  4.4922E-03   17.064 
    52    8    3.5024    0.0000    0.1664   0.06655  5.8441E-03  2.0735E-03  6.2010E-03   19.535 
    53    8    3.5024    0.0000    0.2329   0.06655  6.3833E-03  2.6244E-03  6.9017E-03   22.349 
    54    8    3.5024    0.0000    0.2995   0.06655  5.8441E-03  2.0735E-03  6.2010E-03   19.535 
    55    8    3.5024    0.0000    0.3660   0.06655  4.2945E-03  1.3182E-03  4.4922E-03   17.064 
    56    8    3.5024    0.0000    0.4326   0.06655  1.8142E-03  4.9576E-04  1.8807E-03   15.284 






                               ---------- POWER BUDGET ---------
                               INPUT POWER   = 2.5539E-002 Watts
                               RADIATED POWER= 2.5539E-002 Watts
                               STRUCTURE LOSS= 0.0000E+000 Watts
                               NETWORK LOSS  = 0.0000E+000 Watts
                               EFFICIENCY    =  100.00 Percent


                         ----- RADIATION PATTERNS -----
 ---- ANGLES -----     ----- POWER GAINS -----       ---- POLARIZATION ----   ---- E(THETA) ----    ----- E(PHI) ------
  THETA      PHI       VERTC   HORIZ   TOTAL       AXIAL      TILT  SENSE   MAGNITUDE    PHASE    MAGNITUDE     PHASE
 DEGREES   DEGREES        DB       DB       DB       RATIO   DEGREES            VOLTS/M   DEGREES     VOLTS/M   DEGREES
   90.00      0.00    -31.43  -999.99   -31.43      0.0000      0.00 LINEAR  3.3174E-02     73.95  0.0000E+00      0.00
   90.00      1.00    -31.49  -999.99   -31.49      0.0000      0.00 LINEAR  3.2981E-02     75.33  0.0000E+00      0.00
   90.00      2.00    -31.60  -999.99   -31.60      0.0000      0.00 LINEAR  3.2535E-02     79.54  0.0000E+00      0.00
   90.00      3.00    -31.68  -999.99   -31.68      0.0000      0.00 LINEAR  3.2247E-02     86.74  0.0000E+00      0.00
   90.00      4.00    -31.53  -999.99   -31.53      0.0000      0.00 LINEAR  3.2811E-02     96.76  0.0000E+00      0.00
   90.00      5.00    -30.95  -999.99   -30.95      0.0000      0.00 LINEAR  3.5090E-02    108.55  0.0000E+00      0.00
   90.00      6.00    -29.85  -999.99   -29.85      0.0000      0.00 LINEAR  3.9803E-02    120.24  0.0000E+00      0.00
   90.00      7.00    -28.36  -999.99   -28.36      0.0000      0.00 LINEAR  4.7248E-02    130.16  0.0000E+00      0.00
   90.00      8.00    -26.68  -999.99   -26.68      0.0000      0.00 LINEAR  5.7343E-02    137.65  0.0000E+00      0.00
   90.00      9.00    -24.97  -999.99   -24.97      0.0000      0.00 LINEAR  6.9848E-02    142.86  0.0000E+00      0.00
   90.00     10.00    -23.31  -999.99   -23.31      0.0000      0.00 LINEAR  8.4513E-02    146.24  0.0000E+00      0.00
   90.00     11.00    -21.75  -999.99   -21.75      0.0000      0.00 LINEAR  1.0112E-01    148.20  0.0000E+00      0.00
   90.00     12.00    -20.30  -999.99   -20.30      0.0000      0.00 LINEAR  1.1950E-01    149.09  0.0000E+00      0.00
   90.00     13.00    -18.96  -999.99   -18.96      0.0000      0.00 LINEAR  1.3948E-01    149.14  0.0000E+00      0.00
   90.00     14.00    -17.72  -999.99   -17.72      0.0000      0.00 LINEAR  1.6089E-01    148.53  0.0000E+00      0.00
   90.00     15.00    -16.58  -999.99   -16.58      0.0000      0.00 LINEAR  1.8356E-01    147.38  0.0000E+00      0.00
   90.00     16.00    -15.52  -999.99   -15.52      0.0000      0.00 LINEAR  2.0730E-01    145.76  0.0000E+00      0.00
   90.00     17.00    -14.55  -999.99   -14.55      0.0000      0.00 LINEAR  2.3189E-01    143.75  0.0000E+00      0.00
   90.00     18.00    -13.65  -999.99   -13.65      0.0000      0.00 LINEAR  2.5708E-01    141.39  0.0000E+00      0.00
   90.00     19.00    -12.83  -999.99   -12.83      0.0000      0.00 LINEAR  2.8259E-01    138.70  0.0000E+00      0.00
   90.00     20.00    -12.08  -999.99   -12.08      0.0000      0.00 LINEAR  3.0811E-01    135.72  0.0000E+00      0.00
   90.00     21.00    -11.39  -999.99   -11.39      0.0000      0.00 LINEAR  3.3328E-01    132.46  0.0000E+00      0.00
   90.00     22.00    -10.78  -999.99   -10.78      0.0000      0.00 LINEAR  3.5770E-01    128.94  0.0000E+00      0.00
   90.00     23.00    -10.23  -999.99   -10.23      0.0000      0.00 LINEAR  3.8095E-01    125.16  0.0000E+00      0.00
   90.00     24.00     -9.75  -999.99    -9.75      0.0000      0.00 LINEAR  4.0255E-01    121.14  0.0000E+00      0.00
   90.00     25.00     -9.34  -999.99    -9.34      0.0000      0.00 LINEAR  4.2202E-01    116.87  0.0000E+00      0.00
   90.00     26.00     -9.00  -999.99    -9.00      0.0000      0.00 LINEAR  4.3884E-01    112.36  0.0000E+00      0.00
   90.00     27.00     -8.74  -999.99    -8.74      0.0000      0.00 LINEAR  4.5246E-01    107.61  0.0000E+00      0.00
   90.00     28.00     -8.55  -999.99    -8.55      0.0000      0.00 LINEAR  4.6234E-01    102.62  0.0000E+00      0.00
   90.00     29.00     -8.45  -999.99    -8.45      0.0000      0.00 LINEAR  4.6795E-01     97.38  0.0000E+00      0.00
   90.00     30.00     -8.43  -999.99    -8.43      0.0000      0.00 LINEAR  4.6877E-01     91.88  0.0000E+00      0.00
   90.00     31.00     -8.51  -999.99    -8.51      0.0000      0.00 LINEAR  4.6432E-01     86.10  0.0000E+00      0.00
   90.00     32.00     -8.71  -999.99    -8.71      0.0000      0.00 LINEAR  4.5417E-01     80.04  0.0000E+00      0.00
   90.00     33.00     -9.02  -999.99    -9.02      0.0000      0.00 LINEAR  4.3797E-01     73.64  0.0000E+00      0.00
   90.00     34.00     -9.48  -999.99    -9.48      0.0000      0.00 LINEAR  4.1549E-01     66.87  0.0000E+00      0.00
   90.00     35.00    -10.11  -999.99   -10.11      0.0000      0.00 LINEAR  3.8661E-01     59.65  0.0000E+00      0.00
   90.00     36.00    -10.94  -999.99   -10.94      0.0000      0.00 LINEAR  3.5138E-01     51.84  0.0000E+00      0.00
   90.00     37.00    -12.02  -999.99   -12.02      0.0000      0.00 LINEAR  3.1011E-01     43.23  0.0000E+00      0.00
   90.00     38.00    -13.44  -999.99   -13.44      0.0000      0.00 LINEAR  2.6340E-01     33.40  0.0000E+00      0.00
   90.00     39.00    -15.30  -999.99   -15.30      0.0000      0.00 LINEAR  2.1247E-01     21.45  0.0000E+00      0.00
   90.00     40.00    -17.78  -999.99   -17.78      0.0000      0.00 LINEAR  1.5987E-01      5.27  0.0000E+00      0.00
   90.00     41.00    -20.85  -999.99   -20.85      0.0000      0.00 LINEAR  1.1227E-01    -20.67  0.0000E+00      0.00
   90.00     42.00    -22.85  -999.99   -22.85      0.0000      0.00 LINEAR  8.9166E-02    -65.20  0.0000E+00      0.00
   90.00     43.00    -20.80  -999.99   -20.80      0.0000      0.00 LINEAR  1.1290E-01   -110.94  0.0000E+00      0.00
   90.00     44.00    -17.47  -999.99   -17.47      0.0000      0.00 LINEAR  1.6559E-01   -138.31  0.0000E+00      0.00
   90.00     45.00    -14.73  -999.99   -14.73      0.0000      0.00 LINEAR  2.2701E-01   -155.72  0.0000E+00      0.00
   90.00     46.00    -12.62  -999.99   -12.62      0.0000      0.00 LINEAR  2.8931E-01   -169.04  0.0000E+00      0.00
   90.00     47.00    -11.00  -999.99   -11.00      0.0000      0.00 LINEAR  3.4866E-01    179.47  0.0000E+00      0.00
   90.00     48.00     -9.76  -999.99    -9.76      0.0000      0.00 LINEAR  4.0244E-01    168.89  0.0000E+00      0.00
   90.00     49.00     -8.82  -999.99    -8.82      0.0000      0.00 LINEAR  4.4846E-01    158.77  0.0000E+00      0.00
   90.00     50.00     -8.14  -999.99    -8.14      0.0000      0.00 LINEAR  4.8477E-01    148.85  0.0000E+00      0.00
   90.00     51.00     -7.70  -999.99    -7.70      0.0000      0.00 LINEAR  5.0968E-01    138.98  0.0000E+00      0.00
   90.00     52.00     -7.50  -999.99    -7.50      0.0000      0.00 LINEAR  5.2179E-01    129.05  0.0000E+00      0.00
   90.00     53.00     -7.53  -999.99    -7.53      0.0000      0.00 LINEAR  5.2003E-01    118.97  0.0000E+00      0.00
   90.00     54.00     -7.81  -999.99    -7.81      0.0000      0.00 LINEAR  5.0376E-01    108.63  0.0000E+00      0.00
   90.00     55.00     -8.36  -999.99    -8.36      0.0000      0.00 LINEAR  4.7285E-01     97.91  0.0000E+00      0.00
   90.00     56.00     -9.23  -999.99    -9.23      0.0000      0.00 LINEAR  4.2779E-01     86.58  0.0000E+00      0.00
   90.00     57.00    -10.49  -999.99   -10.49      0.0000      0.00 LINEAR  3.6980E-01     74.27  0.0000E+00      0.00
   90.00     58.00    -12.28  -999.99   -12.28      0.0000      0.00 LINEAR  3.0112E-01     60.21  0.0000E+00      0.00
   90.00     59.00    -14.77  -999.99   -14.77      0.0000      0.00 LINEAR  2.2585E-01     42.51  0.0000E+00      0.00
   90.00     60.00    -18.15  -999.99   -18.15      0.0000      0.00 LINEAR  1.5305E-01     15.79  0.0000E+00      0.00
   90.00     61.00    -21.04  -999.99   -21.04      0.0000      0.00 LINEAR  1.0979E-01    -32.33  0.0000E+00      0.00
   90.00     62.00    -19.16  -999.99   -19.16      0.0000      0.00 LINEAR  1.3636E-01    -86.42  0.0000E+00      0.00
   90.00     63.00    -15.65  -999.99   -15.65      0.0000      0.00 LINEAR  2.0411E-01   -117.86  0.0000E+00      0.00
   90.00     64.00    -13.01  -999.99   -13.01      0.0000      0.00 LINEAR  2.7677E-01   -137.84  0.0000E+00      0.00
   90.00     65.00    -11.21  -999.99   -11.21      0.0000      0.00 LINEAR  3.4041E-01   -153.57  0.0000E+00      0.00
   90.00     66.00    -10.09  -999.99   -10.09      0.0000      0.00 LINEAR  3.8749E-01   -167.59  0.0000E+00      0.00
   90.00     67.00     -9.55  -999.99    -9.55      0.0000      0.00 LINEAR  4.1225E-01    179.04  0.0000E+00      0.00
   90.00     68.00     -9.60  -999.99    -9.60      0.0000      0.00 LINEAR  4.0990E-01    165.64  0.0000E+00      0.00
   90.00     69.00    -10.33  -999.99   -10.33      0.0000      0.00 LINEAR  3.7664E-01    151.47  0.0000E+00      0.00
   90.00     70.00    -12.01  -999.99   -12.01      0.0000      0.00 LINEAR  3.1044E-01    135.03  0.0000E+00      0.00
   90.00     71.00    -15.22  -999.99   -15.22      0.0000      0.00 LINEAR  2.1468E-01    111.29  0.0000E+00      0.00
   90.00     72.00    -19.68  -999.99   -19.68      0.0000      0.00 LINEAR  1.2845E-01     56.25  0.0000E+00      0.00
   90.00     73.00    -15.39  -999.99   -15.39      0.0000      0.00 LINEAR  2.1043E-01    -18.53  0.0000E+00      0.00
   90.00     74.00     -9.40  -999.99    -9.40      0.0000      0.00 LINEAR  4.1940E-01    -49.10  0.0000E+00      0.00
   90.00     75.00     -5.18  -999.99    -5.18      0.0000      0.00 LINEAR  6.8163E-01    -67.07  0.0000E+00      0.00
   90.00     76.00     -2.00  -999.99    -2.00      0.0000      0.00 LINEAR  9.8281E-01    -81.42  0.0000E+00      0.00
   90.00     77.00      0.53  -999.99     0.53      0.0000      0.00 LINEAR  1.3159E+00    -94.32  0.0000E+00      0.00
   90.00     78.00      2.63  -999.99     2.63      0.0000      0.00 LINEAR  1.6743E+00   -106.49  0.0000E+00      0.00
   90.00     79.00      4.39  -999.99     4.39      0.0000      0.00 LINEAR  2.0507E+00   -118.24  0.0000E+00      0.00
   90.00     80.00      5.89  -999.99     5.89      0.0000      0.00 LINEAR  2.4371E+00   -129.75  0.0000E+00      0.00
   90.00     81.00      7.17  -999.99     7.17      0.0000      0.00 LINEAR  2.8250E+00   -141.09  0.0000E+00      0.00
   90.00     82.00      8.27  -999.99     8.27      0.0000      0.00 LINEAR  3.2053E+00   -152.31  0.0000E+00      0.00
   90.00     83.00      9.20  -999.99     9.20      0.0000      0.00 LINEAR  3.5688E+00   -163.44  0.0000E+00      0.00
   90.00     84.00      9.99  -999.99     9.99      0.0000      0.00 LINEAR  3.9065E+00   -174.51  0.0000E+00      0.00
   90.00     85.00     10.63  -999.99    10.63      0.0000      0.00 LINEAR  4.2098E+00    174.48  0.0000E+00      0.00
   90.00     86.00     11.16  -999.99    11.16      0.0000      0.00 LINEAR  4.4709E+00    163.52  0.0000E+00      0.00
   90.00     87.00     11.56  -999.99    11.56      0.0000      0.00 LINEAR  4.6827E+00    152.60  0.0000E+00      0.00
   90.00     88.00     11.85  -999.99    11.85      0.0000      0.00 LINEAR  4.8397E+00    141.72  0.0000E+00      0.00
   90.00     89.00     12.02  -999.99    12.02      0.0000      0.00 LINEAR  4.9376E+00    130.89  0.0000E+00      0.00
   90.00     90.00     12.08  -999.99    12.08      0.0000      0.00 LINEAR  4.9736E+00    120.11  0.0000E+00      0.00
   90.00     91.00     12.04  -999.99    12.04      0.0000      0.00 LINEAR  4.9468E+00    109.37  0.0000E+00      0.00
   90.00     92.00     11.88  -999.99    11.88      0.0000      0.00 LINEAR  4.8578E+00     98.68  0.0000E+00      0.00
   90.00     93.00     11.61  -999.99    11.61      0.0000      0.00 LINEAR  4.7091E+00     88.06  0.0000E+00      0.00
   90.00     94.00     11.22  -999.99    11.22      0.0000      0.00 LINEAR  4.5045E+00     77.50  0.0000E+00      0.00
   90.00     95.00     10.72  -999.99    10.72      0.0000      0.00 LINEAR  4.2496E+00     67.02  0.0000E+00      0.00
   90.00     96.00     10.08  -999.99    10.08      0.0000      0.00 LINEAR  3.9510E+00     56.63  0.0000E+00      0.00
   90.00     97.00      9.32  -999.99     9.32      0.0000      0.00 LINEAR  3.6165E+00     46.34  0.0000E+00      0.00
   90.00     98.00      8.40  -999.99     8.40      0.0000      0.00 LINEAR  3.2544E+00     36.17  0.0000E+00      0.00
   90.00     99.00      7.32  -999.99     7.32      0.0000      0.00 LINEAR  2.8738E+00     26.15  0.0000E+00      0.00
   90.00    100.00      6.05  -999.99     6.05      0.0000      0.00 LINEAR  2.4838E+00     16.31  0.0000E+00      0.00
   90.00    101.00      4.57  -999.99     4.57      0.0000      0.00 LINEAR  2.0935E+00      6.72  0.0000E+00      0.00
   90.00    102.00      2.82  -999.99     2.82      0.0000      0.00 LINEAR  1.7114E+00     -2.56  0.0000E+00      0.00
   90.00    103.00      0.73  -999.99     0.73      0.0000      0.00 LINEAR  1.3458E+00    -11.36  0.0000E+00      0.00
   90.00    104.00     -1.82  -999.99    -1.82      0.0000      0.00 LINEAR  1.0039E+00    -19.38  0.0000E+00      0.00
   90.00    105.00     -5.04  -999.99    -5.04      0.0000      0.00 LINEAR  6.9234E-01    -25.94  0.0000E+00      0.00
   90.00    106.00     -9.42  -999.99    -9.42      0.0000      0.00 LINEAR  4.1813E-01    -28.93  0.0000E+00      0.00
   90.00    107.00    -16.03  -999.99   -16.03      0.0000      0.00 LINEAR  1.9555E-01    -18.29  0.0000E+00      0.00
   90.00    108.00    -20.16  -999.99   -20.16      0.0000      0.00 LINEAR  1.2151E-01     48.83  0.0000E+00      0.00
   90.00    109.00    -14.39  -999.99   -14.39      0.0000      0.00 LINEAR  2.3600E-01     80.51  0.0000E+00      0.00
   90.00    110.00    -11.00  -999.99   -11.00      0.0000      0.00 LINEAR  3.4892E-01     82.30  0.0000E+00      0.00
   90.00    111.00     -9.18  -999.99    -9.18      0.0000      0.00 LINEAR  4.2984E-01     78.58  0.0000E+00      0.00
   90.00    112.00     -8.27  -999.99    -8.27      0.0000      0.00 LINEAR  4.7732E-01     73.47  0.0000E+00      0.00
   90.00    113.00     -7.97  -999.99    -7.97      0.0000      0.00 LINEAR  4.9410E-01     68.25  0.0000E+00      0.00
   90.00    114.00     -8.14  -999.99    -8.14      0.0000      0.00 LINEAR  4.8465E-01     63.61  0.0000E+00      0.00
   90.00    115.00     -8.70  -999.99    -8.70      0.0000      0.00 LINEAR  4.5469E-01     60.18  0.0000E+00      0.00
   90.00    116.00     -9.57  -999.99    -9.57      0.0000      0.00 LINEAR  4.1132E-01     58.71  0.0000E+00      0.00
   90.00    117.00    -10.64  -999.99   -10.64      0.0000      0.00 LINEAR  3.6349E-01     60.18  0.0000E+00      0.00
   90.00    118.00    -11.68  -999.99   -11.68      0.0000      0.00 LINEAR  3.2258E-01     65.56  0.0000E+00      0.00
   90.00    119.00    -12.27  -999.99   -12.27      0.0000      0.00 LINEAR  3.0130E-01     74.69  0.0000E+00      0.00
   90.00    120.00    -12.08  -999.99   -12.08      0.0000      0.00 LINEAR  3.0804E-01     84.91  0.0000E+00      0.00
   90.00    121.00    -11.21  -999.99   -11.21      0.0000      0.00 LINEAR  3.4029E-01     92.67  0.0000E+00      0.00
   90.00    122.00    -10.08  -999.99   -10.08      0.0000      0.00 LINEAR  3.8765E-01     96.59  0.0000E+00      0.00
   90.00    123.00     -8.99  -999.99    -8.99      0.0000      0.00 LINEAR  4.3961E-01     97.24  0.0000E+00      0.00
   90.00    124.00     -8.07  -999.99    -8.07      0.0000      0.00 LINEAR  4.8868E-01     95.65  0.0000E+00      0.00
   90.00    125.00     -7.36  -999.99    -7.36      0.0000      0.00 LINEAR  5.3017E-01     92.62  0.0000E+00      0.00
   90.00    126.00     -6.87  -999.99    -6.87      0.0000      0.00 LINEAR  5.6131E-01     88.74  0.0000E+00      0.00
   90.00    127.00     -6.57  -999.99    -6.57      0.0000      0.00 LINEAR  5.8067E-01     84.39  0.0000E+00      0.00
   90.00    128.00     -6.47  -999.99    -6.47      0.0000      0.00 LINEAR  5.8781E-01     79.86  0.0000E+00      0.00
   90.00    129.00     -6.54  -999.99    -6.54      0.0000      0.00 LINEAR  5.8306E-01     75.36  0.0000E+00      0.00
   90.00    130.00     -6.77  -999.99    -6.77      0.0000      0.00 LINEAR  5.6736E-01     71.09  0.0000E+00      0.00
   90.00    131.00     -7.17  -999.99    -7.17      0.0000      0.00 LINEAR  5.4216E-01     67.25  0.0000E+00      0.00
   90.00    132.00     -7.71  -999.99    -7.71      0.0000      0.00 LINEAR  5.0942E-01     64.06  0.0000E+00      0.00
   90.00    133.00     -8.38  -999.99    -8.38      0.0000      0.00 LINEAR  4.7148E-01     61.76  0.0000E+00      0.00
   90.00    134.00     -9.16  -999.99    -9.16      0.0000      0.00 LINEAR  4.3118E-01     60.65  0.0000E+00      0.00
   90.00    135.00     -9.99  -999.99    -9.99      0.0000      0.00 LINEAR  3.9179E-01     61.05  0.0000E+00      0.00
   90.00    136.00    -10.80  -999.99   -10.80      0.0000      0.00 LINEAR  3.5703E-01     63.22  0.0000E+00      0.00
   90.00    137.00    -11.46  -999.99   -11.46      0.0000      0.00 LINEAR  3.3076E-01     67.19  0.0000E+00      0.00
   90.00    138.00    -11.85  -999.99   -11.85      0.0000      0.00 LINEAR  3.1616E-01     72.49  0.0000E+00      0.00
   90.00    139.00    -11.90  -999.99   -11.90      0.0000      0.00 LINEAR  3.1461E-01     78.17  0.0000E+00      0.00
   90.00    140.00    -11.61  -999.99   -11.61      0.0000      0.00 LINEAR  3.2499E-01     83.11  0.0000E+00      0.00
   90.00    141.00    -11.11  -999.99   -11.11      0.0000      0.00 LINEAR  3.4421E-01     86.58  0.0000E+00      0.00
   90.00    142.00    -10.52  -999.99   -10.52      0.0000      0.00 LINEAR  3.6855E-01     88.40  0.0000E+00      0.00
   90.00    143.00     -9.93  -999.99    -9.93      0.0000      0.00 LINEAR  3.9471E-01     88.74  0.0000E+00      0.00
   90.00    144.00     -9.38  -999.99    -9.38      0.0000      0.00 LINEAR  4.2014E-01     87.88  0.0000E+00      0.00
   90.00    145.00     -8.92  -999.99    -8.92      0.0000      0.00 LINEAR  4.4306E-01     86.13  0.0000E+00      0.00
   90.00    146.00     -8.55  -999.99    -8.55      0.0000      0.00 LINEAR  4.6231E-01     83.71  0.0000E+00      0.00
   90.00    147.00     -8.28  -999.99    -8.28      0.0000      0.00 LINEAR  4.7718E-01     80.82  0.0000E+00      0.00
   90.00    148.00     -8.09  -999.99    -8.09      0.0000      0.00 LINEAR  4.8731E-01     77.60  0.0000E+00      0.00
   90.00    149.00     -8.00  -999.99    -8.00      0.0000      0.00 LINEAR  4.9260E-01     74.15  0.0000E+00      0.00
   90.00    150.00     -7.99  -999.99    -7.99      0.0000      0.00 LINEAR  4.9314E-01     70.56  0.0000E+00      0.00
   90.00    151.00     -8.06  -999.99    -8.06      0.0000      0.00 LINEAR  4.8916E-01     66.90  0.0000E+00      0.00
   90.00    152.00     -8.21  -999.99    -8.21      0.0000      0.00 LINEAR  4.8099E-01     63.21  0.0000E+00      0.00
   90.00    153.00     -8.43  -999.99    -8.43      0.0000      0.00 LINEAR  4.6903E-01     59.53  0.0000E+00      0.00
   90.00    154.00     -8.71  -999.99    -8.71      0.0000      0.00 LINEAR  4.5372E-01     55.90  0.0000E+00      0.00
   90.00    155.00     -9.07  -999.99    -9.07      0.0000      0.00 LINEAR  4.3553E-01     52.34  0.0000E+00      0.00
   90.00    156.00     -9.49  -999.99    -9.49      0.0000      0.00 LINEAR  4.1495E-01     48.89  0.0000E+00      0.00
   90.00    157.00     -9.98  -999.99    -9.98      0.0000      0.00 LINEAR  3.9243E-01     45.55  0.0000E+00      0.00
   90.00    158.00    -10.52  -999.99   -10.52      0.0000      0.00 LINEAR  3.6844E-01     42.36  0.0000E+00      0.00
   90.00    159.00    -11.13  -999.99   -11.13      0.0000      0.00 LINEAR  3.4342E-01     39.33  0.0000E+00      0.00
   90.00    160.00    -11.81  -999.99   -11.81      0.0000      0.00 LINEAR  3.1776E-01     36.48  0.0000E+00      0.00
   90.00    161.00    -12.55  -999.99   -12.55      0.0000      0.00 LINEAR  2.9183E-01     33.84  0.0000E+00      0.00
   90.00    162.00    -13.35  -999.99   -13.35      0.0000      0.00 LINEAR  2.6599E-01     31.43  0.0000E+00      0.00
   90.00    163.00    -14.23  -999.99   -14.23      0.0000      0.00 LINEAR  2.4053E-01     29.27  0.0000E+00      0.00
   90.00    164.00    -15.17  -999.99   -15.17      0.0000      0.00 LINEAR  2.1571E-01     27.41  0.0000E+00      0.00
   90.00    165.00    -16.19  -999.99   -16.19      0.0000      0.00 LINEAR  1.9178E-01     25.89  0.0000E+00      0.00
   90.00    166.00    -17.30  -999.99   -17.30      0.0000      0.00 LINEAR  1.6894E-01     24.75  0.0000E+00      0.00
   90.00    167.00    -18.48  -999.99   -18.48      0.0000      0.00 LINEAR  1.4738E-01     24.09  0.0000E+00      0.00
   90.00    168.00    -19.76  -999.99   -19.76      0.0000      0.00 LINEAR  1.2725E-01     23.98  0.0000E+00      0.00
   90.00    169.00    -21.13  -999.99   -21.13      0.0000      0.00 LINEAR  1.0871E-01     24.58  0.0000E+00      0.00
   90.00    170.00    -22.59  -999.99   -22.59      0.0000      0.00 LINEAR  9.1887E-02     26.05  0.0000E+00      0.00
   90.00    171.00    -24.13  -999.99   -24.13      0.0000      0.00 LINEAR  7.6934E-02     28.63  0.0000E+00      0.00
   90.00    172.00    -25.73  -999.99   -25.73      0.0000      0.00 LINEAR  6.4002E-02     32.62  0.0000E+00      0.00
   90.00    173.00    -27.32  -999.99   -27.32      0.0000      0.00 LINEAR  5.3257E-02     38.32  0.0000E+00      0.00
   90.00    174.00    -28.82  -999.99   -28.82      0.0000      0.00 LINEAR  4.4852E-02     45.88  0.0000E+00      0.00
   90.00    175.00    -30.06  -999.99   -30.06      0.0000      0.00 LINEAR  3.8853E-02     55.04  0.0000E+00      0.00
   90.00    176.00    -30.94  -999.99   -30.94      0.0000      0.00 LINEAR  3.5111E-02     64.85  0.0000E+00      0.00
   90.00    177.00    -31.43  -999.99   -31.43      0.0000      0.00 LINEAR  3.3185E-02     73.88  0.0000E+00      0.00
   90.00    178.00    -31.63  -999.99   -31.63      0.0000      0.00 LINEAR  3.2437E-02     80.89  0.0000E+00      0.00
   90.00    179.00    -31.68  -999.99   -31.68      0.0000      0.00 LINEAR  3.2259E-02     85.22  0.0000E+00      0.00
   90.00    180.00    -31.68  -999.99   -31.68      0.0000      0.00 LINEAR  3.2247E-02     86.66  0.0000E+00      0.00
   90.00    181.00    -31.68  -999.99   -31.68      0.0000      0.00 LINEAR  3.2259E-02     85.22  0.0000E+00      0.00
   90.00    182.00    -31.63  -999.99   -31.63      0.0000      0.00 LINEAR  3.2437E-02     80.89  0.0000E+00      0.00
   90.00    183.00    -31.43  -999.99   -31.43      0.0000      0.00 LINEAR  3.3185E-02     73.88  0.0000E+00      0.00
   90.00    184.00    -30.94  -999.99   -30.94      0.0000      0.00 LINEAR  3.5111E-02     64.85  0.0000E+00      0.00
   90.00    185.00    -30.06  -999.99   -30.06      0.0000      0.00 LINEAR  3.8853E-02     55.04  0.0000E+00      0.00
   90.00    186.00    -28.82  -999.99   -28.82      0.0000      0.00 LINEAR  4.4852E-02     45.88  0.0000E+00      0.00
   90.00    187.00    -27.32  -999.99   -27.32      0.0000      0.00 LINEAR  5.3257E-02     38.32  0.0000E+00      0.00
   90.00    188.00    -25.73  -999.99   -25.73      0.0000      0.00 LINEAR  6.4002E-02     32.62  0.0000E+00      0.00
   90.00    189.00    -24.13  -999.99   -24.13      0.0000      0.00 LINEAR  7.6934E-02     28.63  0.0000E+00      0.00
   90.00    190.00    -22.59  -999.99   -22.59      0.0000      0.00 LINEAR  9.1887E-02     26.05  0.0000E+00      0.00
   90.00    191.00    -21.13  -999.99   -21.13      0.0000      0.00 LINEAR  1.0871E-01     24.58  0.0000E+00      0.00
   90.00    192.00    -19.76  -999.99   -19.76      0.0000      0.00 LINEAR  1.2725E-01     23.98  0.0000E+00      0.00
   90.00    193.00    -18.48  -999.99   -18.48      0.0000      0.00 LINEAR  1.4738E-01     24.09  0.0000E+00      0.00
   90.00    194.00    -17.30  -999.99   -17.30      0.0000      0.00 LINEAR  1.6894E-01     24.75  0.0000E+00      0.00
   90.00    195.00    -16.19  -999.99   -16.19      0.0000      0.00 LINEAR  1.9178E-01     25.89  0.0000E+00      0.00
   90.00    196.00    -15.17  -999.99   -15.17      0.0000      0.00 LINEAR  2.1571E-01     27.41  0.0000E+00      0.00
   90.00    197.00    -14.23  -999.99   -14.23      0.0000      0.00 LINEAR  2.4053E-01     29.27  0.0000E+00      0.00
   90.00    198.00    -13.35  -999.99   -13.35      0.0000      0.00 LINEAR  2.6599E-01     31.43  0.0000E+00      0.00
   90.00    199.00    -12.55  -999.99   -12.55      0.0000      0.00 LINEAR  2.9183E-01     33.84  0.0000E+00      0.00
   90.00    200.00    -11.81  -999.99   -11.81      0.0000      0.00 LINEAR  3.1776E-01     36.48  0.0000E+00      0.00
   90.00    201.00    -11.13  -999.99   -11.13      0.0000      0.00 LINEAR  3.4342E-01     39.33  0.0000E+00      0.00
   90.00    202.00    -10.52  -999.99   -10.52      0.0000      0.00 LINEAR  3.6844E-01     42.36  0.0000E+00      0.00
   90.00    203.00     -9.98  -999.99    -9.98      0.0000      0.00 LINEAR  3.9243E-01     45.55  0.0000E+00      0.00
   90.00    204.00     -9.49  -999.99    -9.49      0.0000      0.00 LINEAR  4.1495E-01     48.89  0.0000E+00      0.00
   90.00    205.00     -9.07  -999.99    -9.07      0.0000      0.00 LINEAR  4.3553E-01     52.34  0.0000E+00      0.00
   90.00    206.00     -8.71  -999.99    -8.71      0.0000      0.00 LINEAR  4.5372E-01     55.90  0.0000E+00      0.00
   90.00    207.00     -8.43  -999.99    -8.43      0.0000      0.00 LINEAR  4.6903E-01     59.53  0.0000E+00      0.00
   90.00    208.00     -8.21  -999.99    -8.21      0.0000      0.00 LINEAR  4.8099E-01     63.21  0.0000E+00      0.00
   90.00    209.00     -8.06  -999.99    -8.06      0.0000      0.00 LINEAR  4.8916E-01     66.90  0.0000E+00      0.00
   90.00    210.00     -7.99  -999.99    -7.99      0.0000      0.00 LINEAR  4.9314E-01     70.56  0.0000E+00      0.00
   90.00    211.00     -8.00  -999.99    -8.00      0.0000      0.00 LINEAR  4.9260E-01     74.15  0.0000E+00      0.00
   90.00    212.00     -8.09  -999.99    -8.09      0.0000      0.00 LINEAR  4.8731E-01     77.60  0.0000E+00      0.00
   90.00    213.00     -8.28  -999.99    -8.28      0.0000      0.00 LINEAR  4.7718E-01     80.82  0.0000E+00      0.00
   90.00    214.00     -8.55  -999.99    -8.55      0.0000      0.00 LINEAR  4.6231E-01     83.71  0.0000E+00      0.00
   90.00    215.00     -8.92  -999.99    -8.92      0.0000      0.00 LINEAR  4.4306E-01     86.13  0.0000E+00      0.00
   90.00    216.00     -9.38  -999.99    -9.38      0.0000      0.00 LINEAR  4.2014E-01     87.88  0.0000E+00      0.00
   90.00    217.00     -9.93  -999.99    -9.93      0.0000      0.00 LINEAR  3.9471E-01     88.74  0.0000E+00      0.00
   90.00    218.00    -10.52  -999.99   -10.52      0.0000      0.00 LINEAR  3.6855E-01     88.40  0.0000E+00      0.00
   90.00    219.00    -11.11  -999.99   -11.11      0.0000      0.00 LINEAR  3.4421E-01     86.58  0.0000E+00      0.00
   90.00    220.00    -11.61  -999.99   -11.61      0.0000      0.00 LINEAR  3.2499E-01     83.11  0.0000E+00      0.00
   90.00    221.00    -11.90  -999.99   -11.90      0.0000      0.00 LINEAR  3.1461E-01     78.17  0.0000E+00      0.00
   90.00    222.00    -11.85  -999.99   -11.85      0.0000      0.00 LINEAR  3.1616E-01     72.49  0.0000E+00      0.00
   90.00    223.00    -11.46  -999.99   -11.46      0.0000      0.00 LINEAR  3.3076E-01     67.19  0.0000E+00      0.00
   90.00    224.00    -10.80  -999.99   -10.80      0.0000      0.00 LINEAR  3.5703E-01     63.22  0.0000E+00      0.00
   90.00    225.00     -9.99  -999.99    -9.99      0.0000      0.00 LINEAR  3.9179E-01     61.05  0.0000E+00      0.00
   90.00    226.00     -9.16  -999.99    -9.16      0.0000      0.00 LINEAR  4.3118E-01     60.65  0.0000E+00      0.00
   90.00    227.00     -8.38  -999.99    -8.38      0.0000      0.00 LINEAR  4.7148E-01     61.76  0.0000E+00      0.00
   90.00    228.00     -7.71  -999.99    -7.71      0.0000      0.00 LINEAR  5.0942E-01     64.06  0.0000E+00      0.00
   90.00    229.00     -7.17  -999.99    -7.17      0.0000      0.00 LINEAR  5.4216E-01     67.25  0.0000E+00      0.00
   90.00    230.00     -6.77  -999.99    -6.77      0.0000      0.00 LINEAR  5.6736E-01     71.09  0.0000E+00      0.00
   90.00    231.00     -6.54  -999.99    -6.54      0.0000      0.00 LINEAR  5.8306E-01     75.36  0.0000E+00      0.00
   90.00    232.00     -6.47  -999.99    -6.47      0.0000      0.00 LINEAR  5.8781E-01     79.86  0.0000E+00      0.00
   90.00    233.00     -6.57  -999.99    -6.57      0.0000      0.00 LINEAR  5.8067E-01     84.39  0.0000E+00      0.00
   90.00    234.00     -6.87  -999.99    -6.87      0.0000      0.00 LINEAR  5.6131E-01     88.74  0.0000E+00      0.00
   90.00    235.00     -7.36  -999.99    -7.36      0.0000      0.00 LINEAR  5.3017E-01     92.62  0.0000E+00      0.00
   90.00    236.00     -8.07  -999.99    -8.07      0.0000      0.00 LINEAR  4.8868E-01     95.65  0.0000E+00      0.00
   90.00    237.00     -8.99  -999.99    -8.99      0.0000      0.00 LINEAR  4.3961E-01     97.24  0.0000E+00      0.00
   90.00    238.00    -10.08  -999.99   -10.08      0.0000      0.00 LINEAR  3.8765E-01     96.59  0.0000E+00      0.00
   90.00    239.00    -11.21  -999.99   -11.21      0.0000      0.00 LINEAR  3.4029E-01     92.67  0.0000E+00      0.00
   90.00    240.00    -12.08  -999.99   -12.08      0.0000      0.00 LINEAR  3.0804E-01     84.91  0.0000E+00      0.00
   90.00    241.00    -12.27  -999.99   -12.27      0.0000      0.00 LINEAR  3.0130E-01     74.69  0.0000E+00      0.00
   90.00    242.00    -11.68  -999.99   -11.68      0.0000      0.00 LINEAR  3.2258E-01     65.56  0.0000E+00      0.00
   90.00    243.00    -10.64  -999.99   -10.64      0.0000      0.00 LINEAR  3.6349E-01     60.18  0.0000E+00      0.00
   90.00    244.00     -9.57  -999.99    -9.57      0.0000      0.00 LINEAR  4.1132E-01     58.71  0.0000E+00      0.00
   90.00    245.00     -8.70  -999.99    -8.70      0.0000      0.00 LINEAR  4.5469E-01     60.18  0.0000E+00      0.00
   90.00    246.00     -8.14  -999.99    -8.14      0.0000      0.00 LINEAR  4.8465E-01     63.61  0.0000E+00      0.00
   90.00    247.00     -7.97  -999.99    -7.97      0.0000      0.00 LINEAR  4.9410E-01     68.25  0.0000E+00      0.00
   90.00    248.00     -8.27  -999.99    -8.27      0.0000      0.00 LINEAR  4.7732E-01     73.47  0.0000E+00      0.00
   90.00    249.00     -9.18  -999.99    -9.18      0.0000      0.00 LINEAR  4.2984E-01     78.58  0.0000E+00      0.00
   90.00    250.00    -11.00  -999.99   -11.00      0.0000      0.00 LINEAR  3.4892E-01     82.30  0.0000E+00      0.00
   90.00    251.00    -14.39  -999.99   -14.39      0.0000      0.00 LINEAR  2.3600E-01     80.51  0.0000E+00      0.00
   90.00    252.00    -20.16  -999.99   -20.16      0.0000      0.00 LINEAR  1.2151E-01     48.83  0.0000E+00      0.00
   90.00    253.00    -16.03  -999.99   -16.03      0.0000      0.00 LINEAR  1.9555E-01    -18.29  0.0000E+00      0.00
   90.00    254.00     -9.42  -999.99    -9.42      0.0000      0.00 LINEAR  4.1813E-01    -28.93  0.0000E+00      0.00
   90.00    255.00     -5.04  -999.99    -5.04      0.0000      0.00 LINEAR  6.9234E-01    -25.94  0.0000E+00      0.00
   90.00    256.00     -1.82  -999.99    -1.82      0.0000      0.00 LINEAR  1.0039E+00    -19.38  0.0000E+00      0.00
   90.00    257.00      0.73  -999.99     0.73      0.0000      0.00 LINEAR  1.3458E+00    -11.36  0.0000E+00      0.00
   90.00    258.00      2.82  -999.99     2.82      0.0000      0.00 LINEAR  1.7114E+00     -2.56  0.0000E+00      0.00
   90.00    259.00      4.57  -999.99     4.57      0.0000      0.00 LINEAR  2.0935E+00      6.72  0.0000E+00      0.00
   90.00    260.00      6.05  -999.99     6.05      0.0000      0.00 LINEAR  2.4838E+00     16.31  0.0000E+00      0.00
   90.00    261.00      7.32  -999.99     7.32      0.0000      0.00 LINEAR  2.8738E+00     26.15  0.0000E+00      0.00
   90.00    262.00      8.40  -999.99     8.40      0.0000      0.00 LINEAR  3.2544E+00     36.17  0.0000E+00      0.00
   90.00    263.00      9.32  -999.99     9.32      0.0000      0.00 LINEAR  3.6165E+00     46.34  0.0000E+00      0.00
   90.00    264.00     10.08  -999.99    10.08      0.0000      0.00 LINEAR  3.9510E+00     56.63  0.0000E+00      0.00
   90.00    265.00     10.72  -999.99    10.72      0.0000      0.00 LINEAR  4.2496E+00     67.02  0.0000E+00      0.00
   90.00    266.00     11.22  -999.99    11.22      0.0000      0.00 LINEAR  4.5045E+00     77.50  0.0000E+00      0.00
   90.00    267.00     11.61  -999.99    11.61      0.0000      0.00 LINEAR  4.7091E+00     88.06  0.0000E+00      0.00
   90.00    268.00     11.88  -999.99    11.88      0.0000      0.00 LINEAR  4.8578E+00     98.68  0.0000E+00      0.00
   90.00    269.00     12.04  -999.99    12.04      0.0000      0.00 LINEAR  4.9468E+00    109.37  0.0000E+00      0.00
   90.00    270.00     12.08  -999.99    12.08      0.0000      0.00 LINEAR  4.9736E+00    120.11  0.0000E+00      0.00
   90.00    271.00     12.02  -999.99    12.02      0.0000      0.00 LINEAR  4.9376E+00    130.89  0.0000E+00      0.00
   90.00    272.00     11.85  -999.99    11.85      0.0000      0.00 LINEAR  4.8397E+00    141.72  0.0000E+00      0.00
   90.00    273.00     11.56  -999.99    11.56      0.0000      0.00 LINEAR  4.6827E+00    152.60  0.0000E+00      0.00
   90.00    274.00     11.16  -999.99    11.16      0.0000      0.00 LINEAR  4.4709E+00    163.52  0.0000E+00      0.00
   90.00    275.00     10.63  -999.99    10.63      0.0000      0.00 LINEAR  4.2098E+00    174.48  0.0000E+00      0.00
   90.00    276.00      9.99  -999.99     9.99      0.0000      0.00 LINEAR  3.9065E+00   -174.51  0.0000E+00      0.00
   90.00    277.00      9.20  -999.99     9.20      0.0000      0.00 LINEAR  3.5688E+00   -163.44  0.0000E+00      0.00
   90.00    278.00      8.27  -999.99     8.27      0.0000      0.00 LINEAR  3.2053E+00   -152.31  0.0000E+00      0.00
   90.00    279.00      7.17  -999.99     7.17      0.0000      0.00 LINEAR  2.8250E+00   -141.09  0.0000E+00      0.00
   90.00    280.00      5.89  -999.99     5.89      0.0000      0.00 LINEAR  2.4371E+00   -129.75  0.0000E+00      0.00
   90.00    281.00      4.39  -999.99     4.39      0.0000      0.00 LINEAR  2.0507E+00   -118.24  0.0000E+00      0.00
   90.00    282.00      2.63  -999.99     2.63      0.0000      0.00 LINEAR  1.6743E+00   -106.49  0.0000E+00      0.00
   90.00    283.00      0.53  -999.99     0.53      0.0000      0.00 LINEAR  1.3159E+00    -94.32  0.0000E+00      0.00
   90.00    284.00     -2.00  -999.99    -2.00      0.0000      0.00 LINEAR  9.8281E-01    -81.42  0.0000E+00      0.00
   90.00    285.00     -5.18  -999.99    -5.18      0.0000      0.00 LINEAR  6.8163E-01    -67.07  0.0000E+00      0.00
   90.00    286.00     -9.40  -999.99    -9.40      0.0000      0.00 LINEAR  4.1940E-01    -49.10  0.0000E+00      0.00
   90.00    287.00    -15.39  -999.99   -15.39      0.0000      0.00 LINEAR  2.1043E-01    -18.53  0.0000E+00      0.00
   90.00    288.00    -19.68  -999.99   -19.68      0.0000      0.00 LINEAR  1.2845E-01     56.25  0.0000E+00      0.00
   90.00    289.00    -15.22  -999.99   -15.22      0.0000      0.00 LINEAR  2.1468E-01    111.29  0.0000E+00      0.00
   90.00    290.00    -12.01  -999.99   -12.01      0.0000      0.00 LINEAR  3.1044E-01    135.03  0.0000E+00      0.00
   90.00    291.00    -10.33  -999.99   -10.33      0.0000      0.00 LINEAR  3.7664E-01    151.47  0.0000E+00      0.00
   90.00    292.00     -9.60  -999.99    -9.60      0.0000      0.00 LINEAR  4.0990E-01    165.64  0.0000E+00      0.00
   90.00    293.00     -9.55  -999.99    -9.55      0.0000      0.00 LINEAR  4.1225E-01    179.04  0.0000E+00      0.00
   90.00    294.00    -10.09  -999.99   -10.09      0.0000      0.00 LINEAR  3.8749E-01   -167.59  0.0000E+00      0.00
   90.00    295.00    -11.21  -999.99   -11.21      0.0000      0.00 LINEAR  3.4041E-01   -153.57  0.0000E+00      0.00
   90.00    296.00    -13.01  -999.99   -13.01      0.0000      0.00 LINEAR  2.7677E-01   -137.84  0.0000E+00      0.00
   90.00    297.00    -15.65  -999.99   -15.65      0.0000      0.00 LINEAR  2.0411E-01   -117.86  0.0000E+00      0.00
   90.00    298.00    -19.16  -999.99   -19.16      0.0000      0.00 LINEAR  1.3636E-01    -86.42  0.0000E+00      0.00
   90.00    299.00    -21.04  -999.99   -21.04      0.0000      0.00 LINEAR  1.0979E-01    -32.33  0.0000E+00      0.00
   90.00    300.00    -18.15  -999.99   -18.15      0.0000      0.00 LINEAR  1.5305E-01     15.79  0.0000E+00      0.00
   90.00    301.00    -14.77  -999.99   -14.77      0.0000      0.00 LINEAR  2.2585E-01     42.51  0.0000E+00      0.00
   90.00    302.00    -12.28  -999.99   -12.28      0.0000      0.00 LINEAR  3.0112E-01     60.21  0.0000E+00      0.00
   90.00    303.00    -10.49  -999.99   -10.49      0.0000      0.00 LINEAR  3.6980E-01     74.27  0.0000E+00      0.00
   90.00    304.00     -9.23  -999.99    -9.23      0.0000      0.00 LINEAR  4.2779E-01     86.58  0.0000E+00      0.00
   90.00    305.00     -8.36  -999.99    -8.36      0.0000      0.00 LINEAR  4.7285E-01     97.91  0.0000E+00      0.00
   90.00    306.00     -7.81  -999.99    -7.81      0.0000      0.00 LINEAR  5.0376E-01    108.63  0.0000E+00      0.00
   90.00    307.00     -7.53  -999.99    -7.53      0.0000      0.00 LINEAR  5.2003E-01    118.97  0.0000E+00      0.00
   90.00    308.00     -7.50  -999.99    -7.50      0.0000      0.00 LINEAR  5.2179E-01    129.05  0.0000E+00      0.00
   90.00    309.00     -7.70  -999.99    -7.70      0.0000      0.00 LINEAR  5.0968E-01    138.98  0.0000E+00      0.00
   90.00    310.00     -8.14  -999.99    -8.14      0.0000      0.00 LINEAR  4.8477E-01    148.85  0.0000E+00      0.00
   90.00    311.00     -8.82  -999.99    -8.82      0.0000      0.00 LINEAR  4.4846E-01    158.77  0.0000E+00      0.00
   90.00    312.00     -9.76  -999.99    -9.76      0.0000      0.00 LINEAR  4.0244E-01    168.89  0.0000E+00      0.00
   90.00    313.00    -11.00  -999.99   -11.00      0.0000      0.00 LINEAR  3.4866E-01    179.47  0.0000E+00      0.00
   90.00    314.00    -12.62  -999.99   -12.62      0.0000      0.00 LINEAR  2.8931E-01   -169.04  0.0000E+00      0.00
   90.00    315.00    -14.73  -999.99   -14.73      0.0000      0.00 LINEAR  2.2701E-01   -155.72  0.0000E+00      0.00
   90.00    316.00    -17.47  -999.99   -17.47      0.0000      0.00 LINEAR  1.6559E-01   -138.31  0.0000E+00      0.00
   90.00    317.00    -20.80  -999.99   -20.80      0.0000      0.00 LINEAR  1.1290E-01   -110.94  0.0000E+00      0.00
   90.00    318.00    -22.85  -999.99   -22.85      0.0000      0.00 LINEAR  8.9166E-02    -65.20  0.0000E+00      0.00
   90.00    319.00    -20.85  -999.99   -20.85      0.0000      0.00 LINEAR  1.1227E-01    -20.67  0.0000E+00      0.00
   90.00    320.00    -17.78  -999.99   -17.78      0.0000      0.00 LINEAR  1.5987E-01      5.27  0.0000E+00      0.00
   90.00    321.00    -15.30  -999.99   -15.30      0.0000      0.00 LINEAR  2.1247E-01     21.45  0.0000E+00      0.00
   90.00    322.00    -13.44  -999.99   -13.44      0.0000      0.00 LINEAR  2.6340E-01     33.40  0.0000E+00      0.00
   90.00    323.00    -12.02  -999.99   -12.02      0.0000      0.00 LINEAR  3.1011E-01     43.23  0.0000E+00      0.00
   90.00    324.00    -10.94  -999.99   -10.94      0.0000      0.00 LINEAR  3.5138E-01     51.84  0.0000E+00      0.00
   90.00    325.00    -10.11  -999.99   -10.11      0.0000      0.00 LINEAR  3.8661E-01     59.65  0.0000E+00      0.00
   90.00    326.00     -9.48  -999.99    -9.48      0.0000      0.00 LINEAR  4.1549E-01     66.87  0.0000E+00      0.00
   90.00    327.00     -9.02  -999.99    -9.02      0.0000      0.00 LINEAR  4.3797E-01     73.64  0.0000E+00      0.00
   90.00    328.00     -8.71  -999.99    -8.71      0.0000      0.00 LINEAR  4.5417E-01     80.04  0.0000E+00      0.00
   90.00    329.00     -8.51  -999.99    -8.51      0.0000      0.00 LINEAR  4.6432E-01     86.10  0.0000E+00      0.00
   90.00    330.00     -8.43  -999.99    -8.43      0.0000      0.00 LINEAR  4.6877E-01     91.88  0.0000E+00      0.00
   90.00    331.00     -8.45  -999.99    -8.45      0.0000      0.00 LINEAR  4.6795E-01     97.38  0.0000E+00      0.00
   90.00    332.00     -8.55  -999.99    -8.55      0.0000      0.00 LINEAR  4.6234E-01    102.62  0.0000E+00      0.00
   90.00    333.00     -8.74  -999.99    -8.74      0.0000      0.00 LINEAR  4.5246E-01    107.61  0.0000E+00      0.00
   90.00    334.00     -9.00  -999.99    -9.00      0.0000      0.00 LINEAR  4.3884E-01    112.36  0.0000E+00      0.00
   90.00    335.00     -9.34  -999.99    -9.34      0.0000      0.00 LINEAR  4.2202E-01    116.87  0.0000E+00      0.00
   90.00    336.00     -9.75  -999.99    -9.75      0.0000      0.00 LINEAR  4.0255E-01    121.14  0.0000E+00      0.00
   90.00    337.00    -10.23  -999.99   -10.23      0.0000      0.00 LINEAR  3.8095E-01    125.16  0.0000E+00      0.00
   90.00    338.00    -10.78  -999.99   -10.78      0.0000      0.00 LINEAR  3.5770E-01    128.94  0.0000E+00      0.00
   90.00    339.00    -11.39  -999.99   -11.39      0.0000      0.00 LINEAR  3.3328E-01    132.46  0.0000E+00      0.00
   90.00    340.00    -12.08  -999.99   -12.08      0.0000      0.00 LINEAR  3.0811E-01    135.72  0.0000E+00      0.00
   90.00    341.00    -12.83  -999.99   -12.83      0.0000      0.00 LINEAR  2.8259E-01    138.70  0.0000E+00      0.00
   90.00    342.00    -13.65  -999.99   -13.65      0.0000      0.00 LINEAR  2.5708E-01    141.39  0.0000E+00      0.00
   90.00    343.00    -14.55  -999.99   -14.55      0.0000      0.00 LINEAR  2.3189E-01    143.75  0.0000E+00      0.00
   90.00    344.00    -15.52  -999.99   -15.52      0.0000      0.00 LINEAR  2.0730E-01    145.76  0.0000E+00      0.00
   90.00    345.00    -16.58  -999.99   -16.58      0.0000      0.00 LINEAR  1.8356E-01    147.38  0.0000E+00      0.00
   90.00    346.00    -17.72  -999.99   -17.72      0.0000      0.00 LINEAR  1.6089E-01    148.53  0.0000E+00      0.00
   90.00    347.00    -18.96  -999.99   -18.96      0.0000      0.00 LINEAR  1.3948E-01    149.14  0.0000E+00      0.00
   90.00    348.00    -20.30  -999.99   -20.30      0.0000      0.00 LINEAR  1.1950E-01    149.09  0.0000E+00      0.00
   90.00    349.00    -21.75  -999.99   -21.75      0.0000      0.00 LINEAR  1.0112E-01    148.20  0.0000E+00      0.00
   90.00    350.00    -23.31  -999.99   -23.31      0.0000      0.00 LINEAR  8.4513E-02    146.24  0.0000E+00      0.00
   90.00    351.00    -24.97  -999.99   -24.97      0.0000      0.00 LINEAR  6.9848E-02    142.86  0.0000E+00      0.00
   90.00    352.00    -26.68  -999.99   -26.68      0.0000      0.00 LINEAR  5.7343E-02    137.65  0.0000E+00      0.00
   90.00    353.00    -28.36  -999.99   -28.36      0.0000      0.00 LINEAR  4.7248E-02    130.16  0.0000E+00      0.00
   90.00    354.00    -29.85  -999.99   -29.85      0.0000      0.00 LINEAR  3.9803E-02    120.24  0.0000E+00      0.00
   90.00    355.00    -30.95  -999.99   -30.95      0.0000      0.00 LINEAR  3.5090E-02    108.55  0.0000E+00      0.00
   90.00    356.00    -31.53  -999.99   -31.53      0.0000      0.00 LINEAR  3.2811E-02     96.76  0.0000E+00      0.00
   90.00    357.00    -31.68  -999.99   -31.68      0.0000      0.00 LINEAR  3.2247E-02     86.74  0.0000E+00      0.00
   90.00    358.00    -31.60  -999.99   -31.60      0.0000      0.00 LINEAR  3.2535E-02     79.54  0.0000E+00      0.00
   90.00    359.00    -31.49  -999.99   -31.49      0.0000      0.00 LINEAR  3.2981E-02     75.33  0.0000E+00      0.00
   90.00    360.00    -31.43  -999.99   -31.43      0.0000      0.00 LINEAR  3.3174E-02     73.95  0.0000E+00      0.00








*****  DATA CARD N0.  13 EN   0     1   361  1000 9.00000E+001 0.00000E+000 0.00000E+000 1.00000E+000 0.00000E+000 0.00000E+000

  TOTAL RUN TIME: 16 msec