


                                __________________________________________
                               |                                          |
                               | NUMERICAL ELECTROMAGNETICS CODE (nec2++) |
                               | Translated to 'C++' in Double Precision  |
                               |        Version 1.5.4 [2014-12-06]        |
                               |__________________________________________|



                               ---------------- COMMENTS ----------------
                                forw: 90, 0 ; back: 0, 0
                               



                                -------- STRUCTURE SPECIFICATION --------
                                COORDINATES MUST BE INPUT IN
                                METERS OR BE SCALED TO METERS
                                BEFORE STRUCTURE INPUT IS ENDED
  WIRE                                                                                 SEG FIRST  LAST  TAG
   No:        X1         Y1         Z1         X2         Y2         Z2       RADIUS   No:   SEG   SEG  No:

     1      0.0000     0.0000     0.0000     0.0000     0.0000     0.0582     0.0004     7     1     7    1
     2      0.0625     0.0000     0.0000     0.0625     0.0000     0.0582     0.0004     7     8    14    2
     3      0.1250     0.0000     0.0000     0.1250     0.0000     0.0582     0.0004     7    15    21    3
     4      0.1875     0.0000     0.0000     0.1875     0.0000     0.0582     0.0004     7    22    28    4
     5      0.2500     0.0000     0.0000     0.2500     0.0000     0.0582     0.0004     7    29    35    5
     6      0.3125     0.0000     0.0000     0.3125     0.0000     0.0582     0.0004     7    36    42    6
     7      0.3750     0.0000     0.0000     0.3750     0.0000     0.0582     0.0004     7    43    49    7
     8      0.4375     0.0000     0.0000     0.4375     0.0000     0.0582     0.0004     7    50    56    8

     TOTAL SEGMENTS USED: 56   SEGMENTS IN A SYMMETRIC CELL: 56   SYMMETRY FLAG: 0


                               ---------- SEGMENTATION DATA ----------
                                        COORDINATES IN METERS
                            I+ AND I- INDICATE THE SEGMENTS BEFORE AND AFTER I

   SEG    COORDINATES OF SEGM CENTER     SEGM    ORIENTATION ANGLES    WIRE    CONNECTION DATA   TAG
   No:       X         Y         Z      LENGTH     ALPHA      BETA    RADIUS    I-     I    I+   NO:
     1    0.0000    0.0000    0.0042    0.0083   90.0000    0.0000    0.0004     0     1     2     1
     2    0.0000    0.0000    0.0125    0.0083   90.0000    0.0000    0.0004     1     2     3     1
     3    0.0000    0.0000    0.0208    0.0083   90.0000    0.0000    0.0004     2     3     4     1
     4    0.0000    0.0000    0.0291    0.0083   90.0000    0.0000    0.0004     3     4     5     1
     5    0.0000    0.0000    0.0374    0.0083   90.0000    0.0000    0.0004     4     5     6     1
     6    0.0000    0.0000    0.0457    0.0083   90.0000    0.0000    0.0004     5     6     7     1
     7    0.0000    0.0000    0.0540    0.0083   90.0000    0.0000    0.0004     6     7     0     1
     8    0.0625    0.0000    0.0042    0.0083   90.0000    0.0000    0.0004     0     8     9     2
     9    0.0625    0.0000    0.0125    0.0083   90.0000    0.0000    0.0004     8     9    10     2
    10    0.0625    0.0000    0.0208    0.0083   90.0000    0.0000    0.0004     9    10    11     2
    11    0.0625    0.0000    0.0291    0.0083   90.0000    0.0000    0.0004    10    11    12     2
    12    0.0625    0.0000    0.0374    0.0083   90.0000    0.0000    0.0004    11    12    13     2
    13    0.0625    0.0000    0.0457    0.0083   90.0000    0.0000    0.0004    12    13    14     2
    14    0.0625    0.0000    0.0540    0.0083   90.0000    0.0000    0.0004    13    14     0     2
    15    0.1250    0.0000    0.0042    0.0083   90.0000    0.0000    0.0004     0    15    16     3
    16    0.1250    0.0000    0.0125    0.0083   90.0000    0.0000    0.0004    15    16    17     3
    17    0.1250    0.0000    0.0208    0.0083   90.0000    0.0000    0.0004    16    17    18     3
    18    0.1250    0.0000    0.0291    0.0083   90.0000    0.0000    0.0004    17    18    19     3
    19    0.1250    0.0000    0.0374    0.0083   90.0000    0.0000    0.0004    18    19    20     3
    20    0.1250    0.0000    0.0457    0.0083   90.0000    0.0000    0.0004    19    20    21     3
    21    0.1250    0.0000    0.0540    0.0083   90.0000    0.0000    0.0004    20    21     0     3
    22    0.1875    0.0000    0.0042    0.0083   90.0000    0.0000    0.0004     0    22    23     4
    23    0.1875    0.0000    0.0125    0.0083   90.0000    0.0000    0.0004    22    23    24     4
    24    0.1875    0.0000    0.0208    0.0083   90.0000    0.0000    0.0004    23    24    25     4
    25    0.1875    0.0000    0.0291    0.0083   90.0000    0.0000    0.0004    24    25    26     4
    26    0.1875    0.0000    0.0374    0.0083   90.0000    0.0000    0.0004    25    26    27     4
    27    0.1875    0.0000    0.0457    0.0083   90.0000    0.0000    0.0004    26    27    28     4
    28    0.1875    0.0000    0.0540    0.0083   90.0000    0.0000    0.0004    27    28     0     4
    29    0.2500    0.0000    0.0042    0.0083   90.0000    0.0000    0.0004     0    29    30     5
    30    0.2500    0.0000    0.0125    0.0083   90.0000    0.0000    0.0004    29    30    31     5
    31    0.2500    0.0000    0.0208    0.0083   90.0000    0.0000    0.0004    30    31    32     5
    32    0.2500    0.0000    0.0291    0.0083   90.0000    0.0000    0.0004    31    32    33     5
    33    0.2500    0.0000    0.0374    0.0083   90.0000    0.0000    0.0004    32    33    34     5
    34    0.2500    0.0000    0.0457    0.0083   90.0000    0.0000    0.0004    33    34    35     5
    35    0.2500    0.0000    0.0540    0.0083   90.0000    0.0000    0.0004    34    35     0     5
    36    0.3125    0.0000    0.0042    0.0083   90.0000    0.0000    0.0004     0    36    37     6
    37    0.3125    0.0000    0.0125    0.0083   90.0000    0.0000    0.0004    36    37    38     6
    38    0.3125    0.0000    0.0208    0.0083   90.0000    0.0000    0.0004    37    38    39     6
    39    0.3125    0.0000    0.0291    0.0083   90.0000    0.0000    0.0004    38    39    40     6
    40    0.3125    0.0000    0.0374    0.0083   90.0000    0.0000    0.0004    39    40    41     6
    41    0.3125    0.0000    0.0457    0.0083   90.0000    0.0000    0.0004    40    41    42     6
    42    0.3125    0.0000    0.0540    0.0083   90.0000    0.0000    0.0004    41    42     0     6
    43    0.3750    0.0000    0.0042    0.0083   90.0000    0.0000    0.0004     0    43    44     7
    44    0.3750    0.0000    0.0125    0.0083   90.0000    0.0000    0.0004    43    44    45     7
    45    0.3750    0.0000    0.0208    0.0083   90.0000    0.0000    0.0004    44    45    46     7
    46    0.3750    0.0000    0.0291    0.0083   90.0000    0.0000    0.0004    45    46    47     7
    47    0.3750    0.0000    0.0374    0.0083   90.0000    0.0000    0.0004    46    47    48     7
    48    0.3750    0.0000    0.0457    0.0083   90.0000    0.0000    0.0004    47    48    49     7
    49    0.3750    0.0000    0.0540    0.0083   90.0000    0.0000    0.0004    48    49     0     7
    50    0.4375    0.0000    0.0042    0.0083   90.0000    0.0000    0.0004     0    50    51     8
    51    0.4375    0.0000    0.0125    0.0083   90.0000    0.0000    0.0004    50    51    52     8
    52    0.4375    0.0000    0.0208    0.0083   90.0000    0.0000    0.0004    51    52    53     8
    53    0.4375    0.0000    0.0291    0.0083   90.0000    0.0000    0.0004    52    53    54     8
    54    0.4375    0.0000    0.0374    0.0083   90.0000    0.0000    0.0004    53    54    55     8
    55    0.4375    0.0000    0.0457    0.0083   90.0000    0.0000    0.0004    54    55    56     8
    56    0.4375    0.0000    0.0540    0.0083   90.0000    0.0000    0.0004    55    56     0     8



*****  DATA CARD N0.   1 EK   0     0     0     0 0.00000E+000 0.00000E+000 0.00000E+000 0.00000E+000 0.00000E+000 0.00000E+000
*****  DATA CARD N0.   2 EX   0     1     4     0 1.12194E-001 0.00000E+000 0.00000E+000 0.00000E+000 0.00000E+000 0.00000E+000
*****  DATA CARD N0.   3 EX   0     2     4     0 6.68071E-001 0.00000E+000 0.00000E+000 0.00000E+000 0.00000E+000 0.00000E+000
*****  DATA CARD N0.   4 EX   0     3     4     0 9.92048E-001 0.00000E+000 0.00000E+000 0.00000E+000 0.00000E+000 0.00000E+000
*****  DATA CARD N0.   5 EX   0     4     4     0 3.36641E-001 0.00000E+000 0.00000E+000 0.00000E+000 0.00000E+000 0.00000E+000
*****  DATA CARD N0.   6 EX   0     5     4     0 9.37495E-001 0.00000E+000 0.00000E+000 0.00000E+000 0.00000E+000 0.00000E+000
*****  DATA CARD N0.   7 EX   0     6     4     0 7.97879E-001 0.00000E+000 0.00000E+000 0.00000E+000 0.00000E+000 0.00000E+000
*****  DATA CARD N0.   8 EX   0     7     4     0 9.32083E-001 0.00000E+000 0.00000E+000 0.00000E+000 0.00000E+000 0.00000E+000
*****  DATA CARD N0.   9 EX   0     8     4     0 9.54021E-003 0.00000E+000 0.00000E+000 0.00000E+000 0.00000E+000 0.00000E+000
*****  DATA CARD N0.  10 GN  -1     0     0     0 0.00000E+000 0.00000E+000 0.00000E+000 0.00000E+000 0.00000E+000 0.00000E+000
*****  DATA CARD N0.  11 FR   0     1     0     0 2.40000E+003 0.00000E+000 0.00000E+000 0.00000E+000 0.00000E+000 0.00000E+000
*****  DATA CARD N0.  12 RP   0     1   361  1000 9.00000E+001 0.00000E+000 0.00000E+000 1.00000E+000 0.00000E+000 0.00000E+000


                               --------- FREQUENCY --------
                               FREQUENCY= 2.4000E+003 MHZ
                               WAVELENGTH=1.2491E-001 METERS


                        APPROXIMATE INTEGRATION EMPLOYED FOR SEGMENTS
                        THAT ARE MORE THAN 1.000 WAVELENGTHS APART
                        THE EXTENDED THIN WIRE KERNEL WILL BE USED



                          ------ STRUCTURE IMPEDANCE LOADING ------
                                 THIS STRUCTURE IS NOT LOADED



                            -------- ANTENNA ENVIRONMENT --------
                            FREE SPACE



                             ---------- MATRIX TIMING ----------
                               FILL= 5 msec  FACTOR: 0 msec


                      ----- ANTENNA INPUT PARAMETERS -----
  TAG   SEG       VOLTAGE (VOLTS)         CURRENT (AMPS)         IMPEDANCE (OHMS)        ADMITTANCE (MHOS)     POWER
  NO.   NO.     REAL      IMAGINARY     REAL      IMAGINARY     REAL      IMAGINARY    REAL       IMAGINARY   (WATTS)
   1     4  1.1219E-01  0.0000E+00  8.6295E-04  2.1294E-03  1.8340E+01 -4.5256E+01  7.6916E-03  1.8980E-02  4.8409E-05
   2    11  6.6807E-01  0.0000E+00  1.0178E-02  6.0360E-03  4.8561E+01 -2.8800E+01  1.5234E-02  9.0350E-03  3.3997E-03
   3    18  9.9205E-01  0.0000E+00  1.2335E-02  6.6493E-03  6.2318E+01 -3.3594E+01  1.2434E-02  6.7026E-03  6.1183E-03
   4    25  3.3664E-01  0.0000E+00  6.1483E-03  6.9300E-03  2.4116E+01 -2.7182E+01  1.8264E-02  2.0586E-02  1.0349E-03
   5    32  9.3749E-01  0.0000E+00  1.0934E-02  6.3175E-03  6.4282E+01 -3.7141E+01  1.1663E-02  6.7387E-03  5.1253E-03
   6    39  7.9788E-01  0.0000E+00  1.2930E-02  9.1777E-03  4.1034E+01 -2.9125E+01  1.6206E-02  1.1503E-02  5.1584E-03
   7    46  9.3208E-01  0.0000E+00  1.1081E-02  5.6255E-03  6.6879E+01 -3.3953E+01  1.1888E-02  6.0354E-03  5.1641E-03
   8    53  9.5402E-03  0.0000E+00  1.4979E-03  3.2468E-03  1.1177E+00 -2.4227E+00  1.5701E-01  3.4033E-01  7.1451E-06







                        ----- CURRENTS AND LOCATION -----
                            DISTANCES IN WAVELENGTHS 

   SEG  TAG    COORDINATES OF SEGM CENTER     SEGM    ------------- CURRENT (AMPS) -------------
   No:  No:       X         Y         Z      LENGTH     REAL      IMAGINARY    MAGN        PHASE
     1    1    0.0000    0.0000    0.0333   0.06655  2.4944E-04  5.4702E-04  6.0121E-04   65.487 
     2    1    0.0000    0.0000    0.0998   0.06655  5.8499E-04  1.3283E-03  1.4514E-03   66.231 
     3    1    0.0000    0.0000    0.1664   0.06655  7.9155E-04  1.8727E-03  2.0331E-03   67.087 
     4    1    0.0000    0.0000    0.2329   0.06655  8.6295E-04  2.1294E-03  2.2976E-03   67.939 
     5    1    0.0000    0.0000    0.2995   0.06655  7.9155E-04  1.8727E-03  2.0331E-03   67.087 
     6    1    0.0000    0.0000    0.3660   0.06655  5.8499E-04  1.3283E-03  1.4514E-03   66.231 
     7    1    0.0000    0.0000    0.4326   0.06655  2.4944E-04  5.4702E-04  6.0121E-04   65.487 
     8    2    0.5003    0.0000    0.0333   0.06655  2.8929E-03  1.3707E-03  3.2012E-03   25.353 
     9    2    0.5003    0.0000    0.0998   0.06655  6.8475E-03  3.4413E-03  7.6636E-03   26.682 
    10    2    0.5003    0.0000    0.1664   0.06655  9.3180E-03  5.0688E-03  1.0607E-02   28.545 
    11    2    0.5003    0.0000    0.2329   0.06655  1.0178E-02  6.0360E-03  1.1833E-02   30.671 
    12    2    0.5003    0.0000    0.2995   0.06655  9.3180E-03  5.0688E-03  1.0607E-02   28.545 
    13    2    0.5003    0.0000    0.3660   0.06655  6.8475E-03  3.4413E-03  7.6636E-03   26.682 
    14    2    0.5003    0.0000    0.4326   0.06655  2.8929E-03  1.3707E-03  3.2012E-03   25.353 
    15    3    1.0007    0.0000    0.0333   0.06655  3.5057E-03  1.3733E-03  3.7650E-03   21.392 
    16    3    1.0007    0.0000    0.0998   0.06655  8.2984E-03  3.5488E-03  9.0253E-03   23.154 
    17    3    1.0007    0.0000    0.1664   0.06655  1.1293E-02  5.4069E-03  1.2520E-02   25.585 
    18    3    1.0007    0.0000    0.2329   0.06655  1.2335E-02  6.6493E-03  1.4013E-02   28.328 
    19    3    1.0007    0.0000    0.2995   0.06655  1.1293E-02  5.4069E-03  1.2520E-02   25.585 
    20    3    1.0007    0.0000    0.3660   0.06655  8.2984E-03  3.5488E-03  9.0253E-03   23.154 
    21    3    1.0007    0.0000    0.4326   0.06655  3.5057E-03  1.3733E-03  3.7650E-03   21.392 
    22    4    1.5010    0.0000    0.0333   0.06655  1.7550E-03  1.7996E-03  2.5137E-03   45.718 
    23    4    1.5010    0.0000    0.0998   0.06655  4.1444E-03  4.3540E-03  6.0111E-03   46.413 
    24    4    1.5010    0.0000    0.1664   0.06655  5.6317E-03  6.1154E-03  8.3135E-03   47.358 
    25    4    1.5010    0.0000    0.2329   0.06655  6.1483E-03  6.9300E-03  9.2642E-03   48.420 
    26    4    1.5010    0.0000    0.2995   0.06655  5.6317E-03  6.1154E-03  8.3135E-03   47.358 
    27    4    1.5010    0.0000    0.3660   0.06655  4.1444E-03  4.3540E-03  6.0111E-03   46.413 
    28    4    1.5010    0.0000    0.4326   0.06655  1.7550E-03  1.7996E-03  2.5137E-03   45.718 
    29    5    2.0014    0.0000    0.0333   0.06655  3.1093E-03  1.3071E-03  3.3729E-03   22.801 
    30    5    2.0014    0.0000    0.0998   0.06655  7.3579E-03  3.3762E-03  8.0956E-03   24.648 
    31    5    2.0014    0.0000    0.1664   0.06655  1.0011E-02  5.1405E-03  1.1254E-02   27.180 
    32    5    2.0014    0.0000    0.2329   0.06655  1.0934E-02  6.3175E-03  1.2628E-02   30.019 
    33    5    2.0014    0.0000    0.2995   0.06655  1.0011E-02  5.1405E-03  1.1254E-02   27.180 
    34    5    2.0014    0.0000    0.3660   0.06655  7.3579E-03  3.3762E-03  8.0956E-03   24.648 
    35    5    2.0014    0.0000    0.4326   0.06655  3.1093E-03  1.3071E-03  3.3729E-03   22.801 
    36    6    2.5017    0.0000    0.0333   0.06655  3.6781E-03  2.1983E-03  4.2850E-03   30.865 
    37    6    2.5017    0.0000    0.0998   0.06655  8.7024E-03  5.4362E-03  1.0261E-02   31.992 
    38    6    2.5017    0.0000    0.1664   0.06655  1.1839E-02  7.8567E-03  1.4209E-02   33.569 
    39    6    2.5017    0.0000    0.2329   0.06655  1.2930E-02  9.1777E-03  1.5856E-02   35.367 
    40    6    2.5017    0.0000    0.2995   0.06655  1.1839E-02  7.8567E-03  1.4209E-02   33.569 
    41    6    2.5017    0.0000    0.3660   0.06655  8.7024E-03  5.4362E-03  1.0261E-02   31.992 
    42    6    2.5017    0.0000    0.4326   0.06655  3.6781E-03  2.1983E-03  4.2850E-03   30.865 
    43    7    3.0020    0.0000    0.0333   0.06655  3.1491E-03  1.1128E-03  3.3399E-03   19.462 
    44    7    3.0020    0.0000    0.0998   0.06655  7.4546E-03  2.9152E-03  8.0044E-03   21.358 
    45    7    3.0020    0.0000    0.1664   0.06655  1.0145E-02  4.5105E-03  1.1102E-02   23.971 
    46    7    3.0020    0.0000    0.2329   0.06655  1.1081E-02  5.6255E-03  1.2427E-02   26.916 
    47    7    3.0020    0.0000    0.2995   0.06655  1.0145E-02  4.5105E-03  1.1102E-02   23.971 
    48    7    3.0020    0.0000    0.3660   0.06655  7.4546E-03  2.9152E-03  8.0044E-03   21.358 
    49    7    3.0020    0.0000    0.4326   0.06655  3.1491E-03  1.1128E-03  3.3399E-03   19.462 
    50    8    3.5024    0.0000    0.0333   0.06655  4.3008E-04  9.2166E-04  1.0171E-03   64.984 
    51    8    3.5024    0.0000    0.0998   0.06655  1.0123E-03  2.1794E-03  2.4031E-03   65.085 
    52    8    3.5024    0.0000    0.1664   0.06655  1.3729E-03  2.9673E-03  3.2695E-03   65.171 
    53    8    3.5024    0.0000    0.2329   0.06655  1.4979E-03  3.2468E-03  3.5757E-03   65.234 
    54    8    3.5024    0.0000    0.2995   0.06655  1.3729E-03  2.9673E-03  3.2695E-03   65.171 
    55    8    3.5024    0.0000    0.3660   0.06655  1.0123E-03  2.1794E-03  2.4031E-03   65.085 
    56    8    3.5024    0.0000    0.4326   0.06655  4.3008E-04  9.2166E-04  1.0171E-03   64.984 






                               ---------- POWER BUDGET ---------
                               INPUT POWER   = 2.6056E-002 Watts
                               RADIATED POWER= 2.6056E-002 Watts
                               STRUCTURE LOSS= 0.0000E+000 Watts
                               NETWORK LOSS  = 0.0000E+000 Watts
                               EFFICIENCY    =  100.00 Percent


                         ----- RADIATION PATTERNS -----
 ---- ANGLES -----     ----- POWER GAINS -----       ---- POLARIZATION ----   ---- E(THETA) ----    ----- E(PHI) ------
  THETA      PHI       VERTC   HORIZ   TOTAL       AXIAL      TILT  SENSE   MAGNITUDE    PHASE    MAGNITUDE     PHASE
 DEGREES   DEGREES        DB       DB       DB       RATIO   DEGREES            VOLTS/M   DEGREES     VOLTS/M   DEGREES
   90.00      0.00     -9.36  -999.99    -9.36      0.0000      0.00 LINEAR  4.2569E-01     38.57  0.0000E+00      0.00
   90.00      1.00     -9.35  -999.99    -9.35      0.0000      0.00 LINEAR  4.2589E-01     38.42  0.0000E+00      0.00
   90.00      2.00     -9.34  -999.99    -9.34      0.0000      0.00 LINEAR  4.2650E-01     37.95  0.0000E+00      0.00
   90.00      3.00     -9.32  -999.99    -9.32      0.0000      0.00 LINEAR  4.2752E-01     37.17  0.0000E+00      0.00
   90.00      4.00     -9.29  -999.99    -9.29      0.0000      0.00 LINEAR  4.2896E-01     36.08  0.0000E+00      0.00
   90.00      5.00     -9.25  -999.99    -9.25      0.0000      0.00 LINEAR  4.3082E-01     34.68  0.0000E+00      0.00
   90.00      6.00     -9.21  -999.99    -9.21      0.0000      0.00 LINEAR  4.3312E-01     32.99  0.0000E+00      0.00
   90.00      7.00     -9.15  -999.99    -9.15      0.0000      0.00 LINEAR  4.3586E-01     31.01  0.0000E+00      0.00
   90.00      8.00     -9.09  -999.99    -9.09      0.0000      0.00 LINEAR  4.3904E-01     28.74  0.0000E+00      0.00
   90.00      9.00     -9.02  -999.99    -9.02      0.0000      0.00 LINEAR  4.4268E-01     26.19  0.0000E+00      0.00
   90.00     10.00     -8.94  -999.99    -8.94      0.0000      0.00 LINEAR  4.4678E-01     23.38  0.0000E+00      0.00
   90.00     11.00     -8.85  -999.99    -8.85      0.0000      0.00 LINEAR  4.5132E-01     20.32  0.0000E+00      0.00
   90.00     12.00     -8.75  -999.99    -8.75      0.0000      0.00 LINEAR  4.5630E-01     17.01  0.0000E+00      0.00
   90.00     13.00     -8.65  -999.99    -8.65      0.0000      0.00 LINEAR  4.6169E-01     13.47  0.0000E+00      0.00
   90.00     14.00     -8.54  -999.99    -8.54      0.0000      0.00 LINEAR  4.6747E-01      9.71  0.0000E+00      0.00
   90.00     15.00     -8.43  -999.99    -8.43      0.0000      0.00 LINEAR  4.7358E-01      5.75  0.0000E+00      0.00
   90.00     16.00     -8.31  -999.99    -8.31      0.0000      0.00 LINEAR  4.7996E-01      1.60  0.0000E+00      0.00
   90.00     17.00     -8.20  -999.99    -8.20      0.0000      0.00 LINEAR  4.8653E-01     -2.73  0.0000E+00      0.00
   90.00     18.00     -8.08  -999.99    -8.08      0.0000      0.00 LINEAR  4.9320E-01     -7.22  0.0000E+00      0.00
   90.00     19.00     -7.96  -999.99    -7.96      0.0000      0.00 LINEAR  4.9985E-01    -11.85  0.0000E+00      0.00
   90.00     20.00     -7.85  -999.99    -7.85      0.0000      0.00 LINEAR  5.0634E-01    -16.62  0.0000E+00      0.00
   90.00     21.00     -7.74  -999.99    -7.74      0.0000      0.00 LINEAR  5.1253E-01    -21.51  0.0000E+00      0.00
   90.00     22.00     -7.65  -999.99    -7.65      0.0000      0.00 LINEAR  5.1824E-01    -26.50  0.0000E+00      0.00
   90.00     23.00     -7.56  -999.99    -7.56      0.0000      0.00 LINEAR  5.2328E-01    -31.59  0.0000E+00      0.00
   90.00     24.00     -7.49  -999.99    -7.49      0.0000      0.00 LINEAR  5.2743E-01    -36.76  0.0000E+00      0.00
   90.00     25.00     -7.44  -999.99    -7.44      0.0000      0.00 LINEAR  5.3047E-01    -41.99  0.0000E+00      0.00
   90.00     26.00     -7.42  -999.99    -7.42      0.0000      0.00 LINEAR  5.3217E-01    -47.27  0.0000E+00      0.00
   90.00     27.00     -7.42  -999.99    -7.42      0.0000      0.00 LINEAR  5.3227E-01    -52.60  0.0000E+00      0.00
   90.00     28.00     -7.44  -999.99    -7.44      0.0000      0.00 LINEAR  5.3052E-01    -57.94  0.0000E+00      0.00
   90.00     29.00     -7.51  -999.99    -7.51      0.0000      0.00 LINEAR  5.2667E-01    -63.28  0.0000E+00      0.00
   90.00     30.00     -7.61  -999.99    -7.61      0.0000      0.00 LINEAR  5.2047E-01    -68.61  0.0000E+00      0.00
   90.00     31.00     -7.76  -999.99    -7.76      0.0000      0.00 LINEAR  5.1168E-01    -73.89  0.0000E+00      0.00
   90.00     32.00     -7.96  -999.99    -7.96      0.0000      0.00 LINEAR  5.0007E-01    -79.10  0.0000E+00      0.00
   90.00     33.00     -8.21  -999.99    -8.21      0.0000      0.00 LINEAR  4.8546E-01    -84.20  0.0000E+00      0.00
   90.00     34.00     -8.54  -999.99    -8.54      0.0000      0.00 LINEAR  4.6769E-01    -89.13  0.0000E+00      0.00
   90.00     35.00     -8.94  -999.99    -8.94      0.0000      0.00 LINEAR  4.4669E-01    -93.82  0.0000E+00      0.00
   90.00     36.00     -9.42  -999.99    -9.42      0.0000      0.00 LINEAR  4.2244E-01    -98.18  0.0000E+00      0.00
   90.00     37.00    -10.00  -999.99   -10.00      0.0000      0.00 LINEAR  3.9505E-01   -102.08  0.0000E+00      0.00
   90.00     38.00    -10.70  -999.99   -10.70      0.0000      0.00 LINEAR  3.6485E-01   -105.31  0.0000E+00      0.00
   90.00     39.00    -11.50  -999.99   -11.50      0.0000      0.00 LINEAR  3.3241E-01   -107.59  0.0000E+00      0.00
   90.00     40.00    -12.43  -999.99   -12.43      0.0000      0.00 LINEAR  2.9881E-01   -108.47  0.0000E+00      0.00
   90.00     41.00    -13.44  -999.99   -13.44      0.0000      0.00 LINEAR  2.6593E-01   -107.34  0.0000E+00      0.00
   90.00     42.00    -14.44  -999.99   -14.44      0.0000      0.00 LINEAR  2.3696E-01   -103.39  0.0000E+00      0.00
   90.00     43.00    -15.21  -999.99   -15.21      0.0000      0.00 LINEAR  2.1691E-01    -96.03  0.0000E+00      0.00
   90.00     44.00    -15.41  -999.99   -15.41      0.0000      0.00 LINEAR  2.1202E-01    -85.89  0.0000E+00      0.00
   90.00     45.00    -14.83  -999.99   -14.83      0.0000      0.00 LINEAR  2.2675E-01    -75.51  0.0000E+00      0.00
   90.00     46.00    -13.62  -999.99   -13.62      0.0000      0.00 LINEAR  2.6067E-01    -67.69  0.0000E+00      0.00
   90.00     47.00    -12.12  -999.99   -12.12      0.0000      0.00 LINEAR  3.0980E-01    -63.39  0.0000E+00      0.00
   90.00     48.00    -10.58  -999.99   -10.58      0.0000      0.00 LINEAR  3.6977E-01    -62.18  0.0000E+00      0.00
   90.00     49.00     -9.12  -999.99    -9.12      0.0000      0.00 LINEAR  4.3723E-01    -63.24  0.0000E+00      0.00
   90.00     50.00     -7.79  -999.99    -7.79      0.0000      0.00 LINEAR  5.0981E-01    -65.93  0.0000E+00      0.00
   90.00     51.00     -6.58  -999.99    -6.58      0.0000      0.00 LINEAR  5.8569E-01    -69.77  0.0000E+00      0.00
   90.00     52.00     -5.50  -999.99    -5.50      0.0000      0.00 LINEAR  6.6340E-01    -74.47  0.0000E+00      0.00
   90.00     53.00     -4.53  -999.99    -4.53      0.0000      0.00 LINEAR  7.4154E-01    -79.81  0.0000E+00      0.00
   90.00     54.00     -3.67  -999.99    -3.67      0.0000      0.00 LINEAR  8.1876E-01    -85.67  0.0000E+00      0.00
   90.00     55.00     -2.91  -999.99    -2.91      0.0000      0.00 LINEAR  8.9362E-01    -91.96  0.0000E+00      0.00
   90.00     56.00     -2.25  -999.99    -2.25      0.0000      0.00 LINEAR  9.6461E-01    -98.61  0.0000E+00      0.00
   90.00     57.00     -1.68  -999.99    -1.68      0.0000      0.00 LINEAR  1.0301E+00   -105.59  0.0000E+00      0.00
   90.00     58.00     -1.20  -999.99    -1.20      0.0000      0.00 LINEAR  1.0882E+00   -112.86  0.0000E+00      0.00
   90.00     59.00     -0.82  -999.99    -0.82      0.0000      0.00 LINEAR  1.1372E+00   -120.41  0.0000E+00      0.00
   90.00     60.00     -0.54  -999.99    -0.54      0.0000      0.00 LINEAR  1.1750E+00   -128.22  0.0000E+00      0.00
   90.00     61.00     -0.36  -999.99    -0.36      0.0000      0.00 LINEAR  1.1994E+00   -136.30  0.0000E+00      0.00
   90.00     62.00     -0.29  -999.99    -0.29      0.0000      0.00 LINEAR  1.2084E+00   -144.64  0.0000E+00      0.00
   90.00     63.00     -0.36  -999.99    -0.36      0.0000      0.00 LINEAR  1.1997E+00   -153.26  0.0000E+00      0.00
   90.00     64.00     -0.56  -999.99    -0.56      0.0000      0.00 LINEAR  1.1713E+00   -162.19  0.0000E+00      0.00
   90.00     65.00     -0.94  -999.99    -0.94      0.0000      0.00 LINEAR  1.1212E+00   -171.46  0.0000E+00      0.00
   90.00     66.00     -1.53  -999.99    -1.53      0.0000      0.00 LINEAR  1.0477E+00    178.86  0.0000E+00      0.00
   90.00     67.00     -2.39  -999.99    -2.39      0.0000      0.00 LINEAR  9.4940E-01    168.63  0.0000E+00      0.00
   90.00     68.00     -3.60  -999.99    -3.60      0.0000      0.00 LINEAR  8.2551E-01    157.58  0.0000E+00      0.00
   90.00     69.00     -5.34  -999.99    -5.34      0.0000      0.00 LINEAR  6.7621E-01    145.13  0.0000E+00      0.00
   90.00     70.00     -7.89  -999.99    -7.89      0.0000      0.00 LINEAR  5.0400E-01    129.69  0.0000E+00      0.00
   90.00     71.00    -11.83  -999.99   -11.83      0.0000      0.00 LINEAR  3.2001E-01    105.51  0.0000E+00      0.00
   90.00     72.00    -16.21  -999.99   -16.21      0.0000      0.00 LINEAR  1.9342E-01     48.22  0.0000E+00      0.00
   90.00     73.00    -12.09  -999.99   -12.09      0.0000      0.00 LINEAR  3.1074E-01    -18.90  0.0000E+00      0.00
   90.00     74.00     -6.92  -999.99    -6.92      0.0000      0.00 LINEAR  5.6351E-01    -47.22  0.0000E+00      0.00
   90.00     75.00     -3.27  -999.99    -3.27      0.0000      0.00 LINEAR  8.5756E-01    -64.35  0.0000E+00      0.00
   90.00     76.00     -0.54  -999.99    -0.54      0.0000      0.00 LINEAR  1.1745E+00    -78.12  0.0000E+00      0.00
   90.00     77.00      1.62  -999.99     1.62      0.0000      0.00 LINEAR  1.5066E+00    -90.55  0.0000E+00      0.00
   90.00     78.00      3.40  -999.99     3.40      0.0000      0.00 LINEAR  1.8478E+00   -102.35  0.0000E+00      0.00
   90.00     79.00      4.88  -999.99     4.88      0.0000      0.00 LINEAR  2.1926E+00   -113.83  0.0000E+00      0.00
   90.00     80.00      6.14  -999.99     6.14      0.0000      0.00 LINEAR  2.5350E+00   -125.13  0.0000E+00      0.00
   90.00     81.00      7.22  -999.99     7.22      0.0000      0.00 LINEAR  2.8691E+00   -136.35  0.0000E+00      0.00
   90.00     82.00      8.14  -999.99     8.14      0.0000      0.00 LINEAR  3.1889E+00   -147.53  0.0000E+00      0.00
   90.00     83.00      8.91  -999.99     8.91      0.0000      0.00 LINEAR  3.4884E+00   -158.71  0.0000E+00      0.00
   90.00     84.00      9.57  -999.99     9.57      0.0000      0.00 LINEAR  3.7619E+00   -169.89  0.0000E+00      0.00
   90.00     85.00     10.11  -999.99    10.11      0.0000      0.00 LINEAR  4.0041E+00    178.91  0.0000E+00      0.00
   90.00     86.00     10.55  -999.99    10.55      0.0000      0.00 LINEAR  4.2101E+00    167.68  0.0000E+00      0.00
   90.00     87.00     10.88  -999.99    10.88      0.0000      0.00 LINEAR  4.3758E+00    156.41  0.0000E+00      0.00
   90.00     88.00     11.12  -999.99    11.12      0.0000      0.00 LINEAR  4.4976E+00    145.11  0.0000E+00      0.00
   90.00     89.00     11.27  -999.99    11.27      0.0000      0.00 LINEAR  4.5731E+00    133.77  0.0000E+00      0.00
   90.00     90.00     11.32  -999.99    11.32      0.0000      0.00 LINEAR  4.6006E+00    122.39  0.0000E+00      0.00
   90.00     91.00     11.28  -999.99    11.28      0.0000      0.00 LINEAR  4.5794E+00    110.98  0.0000E+00      0.00
   90.00     92.00     11.15  -999.99    11.15      0.0000      0.00 LINEAR  4.5101E+00     99.51  0.0000E+00      0.00
   90.00     93.00     10.92  -999.99    10.92      0.0000      0.00 LINEAR  4.3939E+00     88.01  0.0000E+00      0.00
   90.00     94.00     10.60  -999.99    10.60      0.0000      0.00 LINEAR  4.2332E+00     76.46  0.0000E+00      0.00
   90.00     95.00     10.17  -999.99    10.17      0.0000      0.00 LINEAR  4.0313E+00     64.85  0.0000E+00      0.00
   90.00     96.00      9.64  -999.99     9.64      0.0000      0.00 LINEAR  3.7922E+00     53.19  0.0000E+00      0.00
   90.00     97.00      8.99  -999.99     8.99      0.0000      0.00 LINEAR  3.5206E+00     41.46  0.0000E+00      0.00
   90.00     98.00      8.22  -999.99     8.22      0.0000      0.00 LINEAR  3.2218E+00     29.65  0.0000E+00      0.00
   90.00     99.00      7.31  -999.99     7.31      0.0000      0.00 LINEAR  2.9015E+00     17.74  0.0000E+00      0.00
   90.00    100.00      6.25  -999.99     6.25      0.0000      0.00 LINEAR  2.5657E+00      5.68  0.0000E+00      0.00
   90.00    101.00      4.99  -999.99     4.99      0.0000      0.00 LINEAR  2.2205E+00     -6.58  0.0000E+00      0.00
   90.00    102.00      3.51  -999.99     3.51      0.0000      0.00 LINEAR  1.8720E+00    -19.14  0.0000E+00      0.00
   90.00    103.00      1.74  -999.99     1.74      0.0000      0.00 LINEAR  1.5263E+00    -32.18  0.0000E+00      0.00
   90.00    104.00     -0.43  -999.99    -0.43      0.0000      0.00 LINEAR  1.1896E+00    -46.06  0.0000E+00      0.00
   90.00    105.00     -3.16  -999.99    -3.16      0.0000      0.00 LINEAR  8.6848E-01    -61.64  0.0000E+00      0.00
   90.00    106.00     -6.78  -999.99    -6.78      0.0000      0.00 LINEAR  5.7240E-01    -81.26  0.0000E+00      0.00
   90.00    107.00    -11.69  -999.99   -11.69      0.0000      0.00 LINEAR  3.2532E-01   -113.53  0.0000E+00      0.00
   90.00    108.00    -14.71  -999.99   -14.71      0.0000      0.00 LINEAR  2.2975E-01   -179.61  0.0000E+00      0.00
   90.00    109.00    -10.83  -999.99   -10.83      0.0000      0.00 LINEAR  3.5933E-01    127.17  0.0000E+00      0.00
   90.00    110.00     -7.24  -999.99    -7.24      0.0000      0.00 LINEAR  5.4332E-01    101.39  0.0000E+00      0.00
   90.00    111.00     -4.83  -999.99    -4.83      0.0000      0.00 LINEAR  7.1672E-01     83.89  0.0000E+00      0.00
   90.00    112.00     -3.18  -999.99    -3.18      0.0000      0.00 LINEAR  8.6698E-01     69.37  0.0000E+00      0.00
   90.00    113.00     -2.02  -999.99    -2.02      0.0000      0.00 LINEAR  9.9087E-01     56.25  0.0000E+00      0.00
   90.00    114.00     -1.21  -999.99    -1.21      0.0000      0.00 LINEAR  1.0878E+00     43.91  0.0000E+00      0.00
   90.00    115.00     -0.66  -999.99    -0.66      0.0000      0.00 LINEAR  1.1585E+00     32.08  0.0000E+00      0.00
   90.00    116.00     -0.32  -999.99    -0.32      0.0000      0.00 LINEAR  1.2041E+00     20.62  0.0000E+00      0.00
   90.00    117.00     -0.16  -999.99    -0.16      0.0000      0.00 LINEAR  1.2265E+00      9.45  0.0000E+00      0.00
   90.00    118.00     -0.16  -999.99    -0.16      0.0000      0.00 LINEAR  1.2278E+00     -1.44  0.0000E+00      0.00
   90.00    119.00     -0.28  -999.99    -0.28      0.0000      0.00 LINEAR  1.2101E+00    -12.09  0.0000E+00      0.00
   90.00    120.00     -0.53  -999.99    -0.53      0.0000      0.00 LINEAR  1.1760E+00    -22.49  0.0000E+00      0.00
   90.00    121.00     -0.89  -999.99    -0.89      0.0000      0.00 LINEAR  1.1279E+00    -32.63  0.0000E+00      0.00
   90.00    122.00     -1.36  -999.99    -1.36      0.0000      0.00 LINEAR  1.0683E+00    -42.47  0.0000E+00      0.00
   90.00    123.00     -1.94  -999.99    -1.94      0.0000      0.00 LINEAR  9.9978E-01    -51.99  0.0000E+00      0.00
   90.00    124.00     -2.62  -999.99    -2.62      0.0000      0.00 LINEAR  9.2460E-01    -61.12  0.0000E+00      0.00
   90.00    125.00     -3.40  -999.99    -3.40      0.0000      0.00 LINEAR  8.4510E-01    -69.81  0.0000E+00      0.00
   90.00    126.00     -4.28  -999.99    -4.28      0.0000      0.00 LINEAR  7.6349E-01    -77.94  0.0000E+00      0.00
   90.00    127.00     -5.26  -999.99    -5.26      0.0000      0.00 LINEAR  6.8190E-01    -85.40  0.0000E+00      0.00
   90.00    128.00     -6.34  -999.99    -6.34      0.0000      0.00 LINEAR  6.0241E-01    -92.00  0.0000E+00      0.00
   90.00    129.00     -7.50  -999.99    -7.50      0.0000      0.00 LINEAR  5.2712E-01    -97.52  0.0000E+00      0.00
   90.00    130.00     -8.72  -999.99    -8.72      0.0000      0.00 LINEAR  4.5823E-01   -101.68  0.0000E+00      0.00
   90.00    131.00     -9.94  -999.99    -9.94      0.0000      0.00 LINEAR  3.9810E-01   -104.15  0.0000E+00      0.00
   90.00    132.00    -11.08  -999.99   -11.08      0.0000      0.00 LINEAR  3.4922E-01   -104.71  0.0000E+00      0.00
   90.00    133.00    -12.00  -999.99   -12.00      0.0000      0.00 LINEAR  3.1388E-01   -103.43  0.0000E+00      0.00
   90.00    134.00    -12.59  -999.99   -12.59      0.0000      0.00 LINEAR  2.9337E-01   -100.93  0.0000E+00      0.00
   90.00    135.00    -12.78  -999.99   -12.78      0.0000      0.00 LINEAR  2.8705E-01    -98.33  0.0000E+00      0.00
   90.00    136.00    -12.62  -999.99   -12.62      0.0000      0.00 LINEAR  2.9219E-01    -96.75  0.0000E+00      0.00
   90.00    137.00    -12.25  -999.99   -12.25      0.0000      0.00 LINEAR  3.0496E-01    -96.81  0.0000E+00      0.00
   90.00    138.00    -11.79  -999.99   -11.79      0.0000      0.00 LINEAR  3.2173E-01    -98.60  0.0000E+00      0.00
   90.00    139.00    -11.32  -999.99   -11.32      0.0000      0.00 LINEAR  3.3972E-01   -101.88  0.0000E+00      0.00
   90.00    140.00    -10.88  -999.99   -10.88      0.0000      0.00 LINEAR  3.5705E-01   -106.34  0.0000E+00      0.00
   90.00    141.00    -10.51  -999.99   -10.51      0.0000      0.00 LINEAR  3.7257E-01   -111.72  0.0000E+00      0.00
   90.00    142.00    -10.21  -999.99   -10.21      0.0000      0.00 LINEAR  3.8566E-01   -117.78  0.0000E+00      0.00
   90.00    143.00     -9.98  -999.99    -9.98      0.0000      0.00 LINEAR  3.9603E-01   -124.35  0.0000E+00      0.00
   90.00    144.00     -9.82  -999.99    -9.82      0.0000      0.00 LINEAR  4.0366E-01   -131.33  0.0000E+00      0.00
   90.00    145.00     -9.71  -999.99    -9.71      0.0000      0.00 LINEAR  4.0867E-01   -138.61  0.0000E+00      0.00
   90.00    146.00     -9.65  -999.99    -9.65      0.0000      0.00 LINEAR  4.1130E-01   -146.12  0.0000E+00      0.00
   90.00    147.00     -9.64  -999.99    -9.64      0.0000      0.00 LINEAR  4.1185E-01   -153.83  0.0000E+00      0.00
   90.00    148.00     -9.67  -999.99    -9.67      0.0000      0.00 LINEAR  4.1067E-01   -161.68  0.0000E+00      0.00
   90.00    149.00     -9.72  -999.99    -9.72      0.0000      0.00 LINEAR  4.0813E-01   -169.64  0.0000E+00      0.00
   90.00    150.00     -9.80  -999.99    -9.80      0.0000      0.00 LINEAR  4.0460E-01   -177.69  0.0000E+00      0.00
   90.00    151.00     -9.89  -999.99    -9.89      0.0000      0.00 LINEAR  4.0045E-01    174.20  0.0000E+00      0.00
   90.00    152.00     -9.98  -999.99    -9.98      0.0000      0.00 LINEAR  3.9601E-01    166.06  0.0000E+00      0.00
   90.00    153.00    -10.08  -999.99   -10.08      0.0000      0.00 LINEAR  3.9161E-01    157.93  0.0000E+00      0.00
   90.00    154.00    -10.17  -999.99   -10.17      0.0000      0.00 LINEAR  3.8751E-01    149.83  0.0000E+00      0.00
   90.00    155.00    -10.25  -999.99   -10.25      0.0000      0.00 LINEAR  3.8393E-01    141.80  0.0000E+00      0.00
   90.00    156.00    -10.32  -999.99   -10.32      0.0000      0.00 LINEAR  3.8103E-01    133.90  0.0000E+00      0.00
   90.00    157.00    -10.37  -999.99   -10.37      0.0000      0.00 LINEAR  3.7895E-01    126.15  0.0000E+00      0.00
   90.00    158.00    -10.39  -999.99   -10.39      0.0000      0.00 LINEAR  3.7773E-01    118.60  0.0000E+00      0.00
   90.00    159.00    -10.40  -999.99   -10.40      0.0000      0.00 LINEAR  3.7738E-01    111.29  0.0000E+00      0.00
   90.00    160.00    -10.39  -999.99   -10.39      0.0000      0.00 LINEAR  3.7788E-01    104.25  0.0000E+00      0.00
   90.00    161.00    -10.36  -999.99   -10.36      0.0000      0.00 LINEAR  3.7917E-01     97.53  0.0000E+00      0.00
   90.00    162.00    -10.32  -999.99   -10.32      0.0000      0.00 LINEAR  3.8114E-01     91.13  0.0000E+00      0.00
   90.00    163.00    -10.26  -999.99   -10.26      0.0000      0.00 LINEAR  3.8370E-01     85.09  0.0000E+00      0.00
   90.00    164.00    -10.19  -999.99   -10.19      0.0000      0.00 LINEAR  3.8672E-01     79.41  0.0000E+00      0.00
   90.00    165.00    -10.11  -999.99   -10.11      0.0000      0.00 LINEAR  3.9009E-01     74.10  0.0000E+00      0.00
   90.00    166.00    -10.03  -999.99   -10.03      0.0000      0.00 LINEAR  3.9369E-01     69.17  0.0000E+00      0.00
   90.00    167.00     -9.95  -999.99    -9.95      0.0000      0.00 LINEAR  3.9742E-01     64.61  0.0000E+00      0.00
   90.00    168.00     -9.87  -999.99    -9.87      0.0000      0.00 LINEAR  4.0118E-01     60.43  0.0000E+00      0.00
   90.00    169.00     -9.79  -999.99    -9.79      0.0000      0.00 LINEAR  4.0487E-01     56.62  0.0000E+00      0.00
   90.00    170.00     -9.72  -999.99    -9.72      0.0000      0.00 LINEAR  4.0844E-01     53.17  0.0000E+00      0.00
   90.00    171.00     -9.64  -999.99    -9.64      0.0000      0.00 LINEAR  4.1182E-01     50.07  0.0000E+00      0.00
   90.00    172.00     -9.58  -999.99    -9.58      0.0000      0.00 LINEAR  4.1495E-01     47.32  0.0000E+00      0.00
   90.00    173.00     -9.52  -999.99    -9.52      0.0000      0.00 LINEAR  4.1779E-01     44.92  0.0000E+00      0.00
   90.00    174.00     -9.47  -999.99    -9.47      0.0000      0.00 LINEAR  4.2030E-01     42.84  0.0000E+00      0.00
   90.00    175.00     -9.42  -999.99    -9.42      0.0000      0.00 LINEAR  4.2247E-01     41.10  0.0000E+00      0.00
   90.00    176.00     -9.38  -999.99    -9.38      0.0000      0.00 LINEAR  4.2427E-01     39.68  0.0000E+00      0.00
   90.00    177.00     -9.36  -999.99    -9.36      0.0000      0.00 LINEAR  4.2568E-01     38.58  0.0000E+00      0.00
   90.00    178.00     -9.34  -999.99    -9.34      0.0000      0.00 LINEAR  4.2670E-01     37.80  0.0000E+00      0.00
   90.00    179.00     -9.32  -999.99    -9.32      0.0000      0.00 LINEAR  4.2731E-01     37.33  0.0000E+00      0.00
   90.00    180.00     -9.32  -999.99    -9.32      0.0000      0.00 LINEAR  4.2751E-01     37.18  0.0000E+00      0.00
   90.00    181.00     -9.32  -999.99    -9.32      0.0000      0.00 LINEAR  4.2731E-01     37.33  0.0000E+00      0.00
   90.00    182.00     -9.34  -999.99    -9.34      0.0000      0.00 LINEAR  4.2670E-01     37.80  0.0000E+00      0.00
   90.00    183.00     -9.36  -999.99    -9.36      0.0000      0.00 LINEAR  4.2568E-01     38.58  0.0000E+00      0.00
   90.00    184.00     -9.38  -999.99    -9.38      0.0000      0.00 LINEAR  4.2427E-01     39.68  0.0000E+00      0.00
   90.00    185.00     -9.42  -999.99    -9.42      0.0000      0.00 LINEAR  4.2247E-01     41.10  0.0000E+00      0.00
   90.00    186.00     -9.47  -999.99    -9.47      0.0000      0.00 LINEAR  4.2030E-01     42.84  0.0000E+00      0.00
   90.00    187.00     -9.52  -999.99    -9.52      0.0000      0.00 LINEAR  4.1779E-01     44.92  0.0000E+00      0.00
   90.00    188.00     -9.58  -999.99    -9.58      0.0000      0.00 LINEAR  4.1495E-01     47.32  0.0000E+00      0.00
   90.00    189.00     -9.64  -999.99    -9.64      0.0000      0.00 LINEAR  4.1182E-01     50.07  0.0000E+00      0.00
   90.00    190.00     -9.72  -999.99    -9.72      0.0000      0.00 LINEAR  4.0844E-01     53.17  0.0000E+00      0.00
   90.00    191.00     -9.79  -999.99    -9.79      0.0000      0.00 LINEAR  4.0487E-01     56.62  0.0000E+00      0.00
   90.00    192.00     -9.87  -999.99    -9.87      0.0000      0.00 LINEAR  4.0118E-01     60.43  0.0000E+00      0.00
   90.00    193.00     -9.95  -999.99    -9.95      0.0000      0.00 LINEAR  3.9742E-01     64.61  0.0000E+00      0.00
   90.00    194.00    -10.03  -999.99   -10.03      0.0000      0.00 LINEAR  3.9369E-01     69.17  0.0000E+00      0.00
   90.00    195.00    -10.11  -999.99   -10.11      0.0000      0.00 LINEAR  3.9009E-01     74.10  0.0000E+00      0.00
   90.00    196.00    -10.19  -999.99   -10.19      0.0000      0.00 LINEAR  3.8672E-01     79.41  0.0000E+00      0.00
   90.00    197.00    -10.26  -999.99   -10.26      0.0000      0.00 LINEAR  3.8370E-01     85.09  0.0000E+00      0.00
   90.00    198.00    -10.32  -999.99   -10.32      0.0000      0.00 LINEAR  3.8114E-01     91.13  0.0000E+00      0.00
   90.00    199.00    -10.36  -999.99   -10.36      0.0000      0.00 LINEAR  3.7917E-01     97.53  0.0000E+00      0.00
   90.00    200.00    -10.39  -999.99   -10.39      0.0000      0.00 LINEAR  3.7788E-01    104.25  0.0000E+00      0.00
   90.00    201.00    -10.40  -999.99   -10.40      0.0000      0.00 LINEAR  3.7738E-01    111.29  0.0000E+00      0.00
   90.00    202.00    -10.39  -999.99   -10.39      0.0000      0.00 LINEAR  3.7773E-01    118.60  0.0000E+00      0.00
   90.00    203.00    -10.37  -999.99   -10.37      0.0000      0.00 LINEAR  3.7895E-01    126.15  0.0000E+00      0.00
   90.00    204.00    -10.32  -999.99   -10.32      0.0000      0.00 LINEAR  3.8103E-01    133.90  0.0000E+00      0.00
   90.00    205.00    -10.25  -999.99   -10.25      0.0000      0.00 LINEAR  3.8393E-01    141.80  0.0000E+00      0.00
   90.00    206.00    -10.17  -999.99   -10.17      0.0000      0.00 LINEAR  3.8751E-01    149.83  0.0000E+00      0.00
   90.00    207.00    -10.08  -999.99   -10.08      0.0000      0.00 LINEAR  3.9161E-01    157.93  0.0000E+00      0.00
   90.00    208.00     -9.98  -999.99    -9.98      0.0000      0.00 LINEAR  3.9601E-01    166.06  0.0000E+00      0.00
   90.00    209.00     -9.89  -999.99    -9.89      0.0000      0.00 LINEAR  4.0045E-01    174.20  0.0000E+00      0.00
   90.00    210.00     -9.80  -999.99    -9.80      0.0000      0.00 LINEAR  4.0460E-01   -177.69  0.0000E+00      0.00
   90.00    211.00     -9.72  -999.99    -9.72      0.0000      0.00 LINEAR  4.0813E-01   -169.64  0.0000E+00      0.00
   90.00    212.00     -9.67  -999.99    -9.67      0.0000      0.00 LINEAR  4.1067E-01   -161.68  0.0000E+00      0.00
   90.00    213.00     -9.64  -999.99    -9.64      0.0000      0.00 LINEAR  4.1185E-01   -153.83  0.0000E+00      0.00
   90.00    214.00     -9.65  -999.99    -9.65      0.0000      0.00 LINEAR  4.1130E-01   -146.12  0.0000E+00      0.00
   90.00    215.00     -9.71  -999.99    -9.71      0.0000      0.00 LINEAR  4.0867E-01   -138.61  0.0000E+00      0.00
   90.00    216.00     -9.82  -999.99    -9.82      0.0000      0.00 LINEAR  4.0366E-01   -131.33  0.0000E+00      0.00
   90.00    217.00     -9.98  -999.99    -9.98      0.0000      0.00 LINEAR  3.9603E-01   -124.35  0.0000E+00      0.00
   90.00    218.00    -10.21  -999.99   -10.21      0.0000      0.00 LINEAR  3.8566E-01   -117.78  0.0000E+00      0.00
   90.00    219.00    -10.51  -999.99   -10.51      0.0000      0.00 LINEAR  3.7257E-01   -111.72  0.0000E+00      0.00
   90.00    220.00    -10.88  -999.99   -10.88      0.0000      0.00 LINEAR  3.5705E-01   -106.34  0.0000E+00      0.00
   90.00    221.00    -11.32  -999.99   -11.32      0.0000      0.00 LINEAR  3.3972E-01   -101.88  0.0000E+00      0.00
   90.00    222.00    -11.79  -999.99   -11.79      0.0000      0.00 LINEAR  3.2173E-01    -98.60  0.0000E+00      0.00
   90.00    223.00    -12.25  -999.99   -12.25      0.0000      0.00 LINEAR  3.0496E-01    -96.81  0.0000E+00      0.00
   90.00    224.00    -12.62  -999.99   -12.62      0.0000      0.00 LINEAR  2.9219E-01    -96.75  0.0000E+00      0.00
   90.00    225.00    -12.78  -999.99   -12.78      0.0000      0.00 LINEAR  2.8705E-01    -98.33  0.0000E+00      0.00
   90.00    226.00    -12.59  -999.99   -12.59      0.0000      0.00 LINEAR  2.9337E-01   -100.93  0.0000E+00      0.00
   90.00    227.00    -12.00  -999.99   -12.00      0.0000      0.00 LINEAR  3.1388E-01   -103.43  0.0000E+00      0.00
   90.00    228.00    -11.08  -999.99   -11.08      0.0000      0.00 LINEAR  3.4922E-01   -104.71  0.0000E+00      0.00
   90.00    229.00     -9.94  -999.99    -9.94      0.0000      0.00 LINEAR  3.9810E-01   -104.15  0.0000E+00      0.00
   90.00    230.00     -8.72  -999.99    -8.72      0.0000      0.00 LINEAR  4.5823E-01   -101.68  0.0000E+00      0.00
   90.00    231.00     -7.50  -999.99    -7.50      0.0000      0.00 LINEAR  5.2712E-01    -97.52  0.0000E+00      0.00
   90.00    232.00     -6.34  -999.99    -6.34      0.0000      0.00 LINEAR  6.0241E-01    -92.00  0.0000E+00      0.00
   90.00    233.00     -5.26  -999.99    -5.26      0.0000      0.00 LINEAR  6.8190E-01    -85.40  0.0000E+00      0.00
   90.00    234.00     -4.28  -999.99    -4.28      0.0000      0.00 LINEAR  7.6349E-01    -77.94  0.0000E+00      0.00
   90.00    235.00     -3.40  -999.99    -3.40      0.0000      0.00 LINEAR  8.4510E-01    -69.81  0.0000E+00      0.00
   90.00    236.00     -2.62  -999.99    -2.62      0.0000      0.00 LINEAR  9.2460E-01    -61.12  0.0000E+00      0.00
   90.00    237.00     -1.94  -999.99    -1.94      0.0000      0.00 LINEAR  9.9978E-01    -51.99  0.0000E+00      0.00
   90.00    238.00     -1.36  -999.99    -1.36      0.0000      0.00 LINEAR  1.0683E+00    -42.47  0.0000E+00      0.00
   90.00    239.00     -0.89  -999.99    -0.89      0.0000      0.00 LINEAR  1.1279E+00    -32.63  0.0000E+00      0.00
   90.00    240.00     -0.53  -999.99    -0.53      0.0000      0.00 LINEAR  1.1760E+00    -22.49  0.0000E+00      0.00
   90.00    241.00     -0.28  -999.99    -0.28      0.0000      0.00 LINEAR  1.2101E+00    -12.09  0.0000E+00      0.00
   90.00    242.00     -0.16  -999.99    -0.16      0.0000      0.00 LINEAR  1.2278E+00     -1.44  0.0000E+00      0.00
   90.00    243.00     -0.16  -999.99    -0.16      0.0000      0.00 LINEAR  1.2265E+00      9.45  0.0000E+00      0.00
   90.00    244.00     -0.32  -999.99    -0.32      0.0000      0.00 LINEAR  1.2041E+00     20.62  0.0000E+00      0.00
   90.00    245.00     -0.66  -999.99    -0.66      0.0000      0.00 LINEAR  1.1585E+00     32.08  0.0000E+00      0.00
   90.00    246.00     -1.21  -999.99    -1.21      0.0000      0.00 LINEAR  1.0878E+00     43.91  0.0000E+00      0.00
   90.00    247.00     -2.02  -999.99    -2.02      0.0000      0.00 LINEAR  9.9087E-01     56.25  0.0000E+00      0.00
   90.00    248.00     -3.18  -999.99    -3.18      0.0000      0.00 LINEAR  8.6698E-01     69.37  0.0000E+00      0.00
   90.00    249.00     -4.83  -999.99    -4.83      0.0000      0.00 LINEAR  7.1672E-01     83.89  0.0000E+00      0.00
   90.00    250.00     -7.24  -999.99    -7.24      0.0000      0.00 LINEAR  5.4332E-01    101.39  0.0000E+00      0.00
   90.00    251.00    -10.83  -999.99   -10.83      0.0000      0.00 LINEAR  3.5933E-01    127.17  0.0000E+00      0.00
   90.00    252.00    -14.71  -999.99   -14.71      0.0000      0.00 LINEAR  2.2975E-01   -179.61  0.0000E+00      0.00
   90.00    253.00    -11.69  -999.99   -11.69      0.0000      0.00 LINEAR  3.2532E-01   -113.53  0.0000E+00      0.00
   90.00    254.00     -6.78  -999.99    -6.78      0.0000      0.00 LINEAR  5.7240E-01    -81.26  0.0000E+00      0.00
   90.00    255.00     -3.16  -999.99    -3.16      0.0000      0.00 LINEAR  8.6848E-01    -61.64  0.0000E+00      0.00
   90.00    256.00     -0.43  -999.99    -0.43      0.0000      0.00 LINEAR  1.1896E+00    -46.06  0.0000E+00      0.00
   90.00    257.00      1.74  -999.99     1.74      0.0000      0.00 LINEAR  1.5263E+00    -32.18  0.0000E+00      0.00
   90.00    258.00      3.51  -999.99     3.51      0.0000      0.00 LINEAR  1.8720E+00    -19.14  0.0000E+00      0.00
   90.00    259.00      4.99  -999.99     4.99      0.0000      0.00 LINEAR  2.2205E+00     -6.58  0.0000E+00      0.00
   90.00    260.00      6.25  -999.99     6.25      0.0000      0.00 LINEAR  2.5657E+00      5.68  0.0000E+00      0.00
   90.00    261.00      7.31  -999.99     7.31      0.0000      0.00 LINEAR  2.9015E+00     17.74  0.0000E+00      0.00
   90.00    262.00      8.22  -999.99     8.22      0.0000      0.00 LINEAR  3.2218E+00     29.65  0.0000E+00      0.00
   90.00    263.00      8.99  -999.99     8.99      0.0000      0.00 LINEAR  3.5206E+00     41.46  0.0000E+00      0.00
   90.00    264.00      9.64  -999.99     9.64      0.0000      0.00 LINEAR  3.7922E+00     53.19  0.0000E+00      0.00
   90.00    265.00     10.17  -999.99    10.17      0.0000      0.00 LINEAR  4.0313E+00     64.85  0.0000E+00      0.00
   90.00    266.00     10.60  -999.99    10.60      0.0000      0.00 LINEAR  4.2332E+00     76.46  0.0000E+00      0.00
   90.00    267.00     10.92  -999.99    10.92      0.0000      0.00 LINEAR  4.3939E+00     88.01  0.0000E+00      0.00
   90.00    268.00     11.15  -999.99    11.15      0.0000      0.00 LINEAR  4.5101E+00     99.51  0.0000E+00      0.00
   90.00    269.00     11.28  -999.99    11.28      0.0000      0.00 LINEAR  4.5794E+00    110.98  0.0000E+00      0.00
   90.00    270.00     11.32  -999.99    11.32      0.0000      0.00 LINEAR  4.6006E+00    122.39  0.0000E+00      0.00
   90.00    271.00     11.27  -999.99    11.27      0.0000      0.00 LINEAR  4.5731E+00    133.77  0.0000E+00      0.00
   90.00    272.00     11.12  -999.99    11.12      0.0000      0.00 LINEAR  4.4976E+00    145.11  0.0000E+00      0.00
   90.00    273.00     10.88  -999.99    10.88      0.0000      0.00 LINEAR  4.3758E+00    156.41  0.0000E+00      0.00
   90.00    274.00     10.55  -999.99    10.55      0.0000      0.00 LINEAR  4.2101E+00    167.68  0.0000E+00      0.00
   90.00    275.00     10.11  -999.99    10.11      0.0000      0.00 LINEAR  4.0041E+00    178.91  0.0000E+00      0.00
   90.00    276.00      9.57  -999.99     9.57      0.0000      0.00 LINEAR  3.7619E+00   -169.89  0.0000E+00      0.00
   90.00    277.00      8.91  -999.99     8.91      0.0000      0.00 LINEAR  3.4884E+00   -158.71  0.0000E+00      0.00
   90.00    278.00      8.14  -999.99     8.14      0.0000      0.00 LINEAR  3.1889E+00   -147.53  0.0000E+00      0.00
   90.00    279.00      7.22  -999.99     7.22      0.0000      0.00 LINEAR  2.8691E+00   -136.35  0.0000E+00      0.00
   90.00    280.00      6.14  -999.99     6.14      0.0000      0.00 LINEAR  2.5350E+00   -125.13  0.0000E+00      0.00
   90.00    281.00      4.88  -999.99     4.88      0.0000      0.00 LINEAR  2.1926E+00   -113.83  0.0000E+00      0.00
   90.00    282.00      3.40  -999.99     3.40      0.0000      0.00 LINEAR  1.8478E+00   -102.35  0.0000E+00      0.00
   90.00    283.00      1.62  -999.99     1.62      0.0000      0.00 LINEAR  1.5066E+00    -90.55  0.0000E+00      0.00
   90.00    284.00     -0.54  -999.99    -0.54      0.0000      0.00 LINEAR  1.1745E+00    -78.12  0.0000E+00      0.00
   90.00    285.00     -3.27  -999.99    -3.27      0.0000      0.00 LINEAR  8.5756E-01    -64.35  0.0000E+00      0.00
   90.00    286.00     -6.92  -999.99    -6.92      0.0000      0.00 LINEAR  5.6351E-01    -47.22  0.0000E+00      0.00
   90.00    287.00    -12.09  -999.99   -12.09      0.0000      0.00 LINEAR  3.1074E-01    -18.90  0.0000E+00      0.00
   90.00    288.00    -16.21  -999.99   -16.21      0.0000      0.00 LINEAR  1.9342E-01     48.22  0.0000E+00      0.00
   90.00    289.00    -11.83  -999.99   -11.83      0.0000      0.00 LINEAR  3.2001E-01    105.51  0.0000E+00      0.00
   90.00    290.00     -7.89  -999.99    -7.89      0.0000      0.00 LINEAR  5.0400E-01    129.69  0.0000E+00      0.00
   90.00    291.00     -5.34  -999.99    -5.34      0.0000      0.00 LINEAR  6.7621E-01    145.13  0.0000E+00      0.00
   90.00    292.00     -3.60  -999.99    -3.60      0.0000      0.00 LINEAR  8.2551E-01    157.58  0.0000E+00      0.00
   90.00    293.00     -2.39  -999.99    -2.39      0.0000      0.00 LINEAR  9.4940E-01    168.63  0.0000E+00      0.00
   90.00    294.00     -1.53  -999.99    -1.53      0.0000      0.00 LINEAR  1.0477E+00    178.86  0.0000E+00      0.00
   90.00    295.00     -0.94  -999.99    -0.94      0.0000      0.00 LINEAR  1.1212E+00   -171.46  0.0000E+00      0.00
   90.00    296.00     -0.56  -999.99    -0.56      0.0000      0.00 LINEAR  1.1713E+00   -162.19  0.0000E+00      0.00
   90.00    297.00     -0.36  -999.99    -0.36      0.0000      0.00 LINEAR  1.1997E+00   -153.26  0.0000E+00      0.00
   90.00    298.00     -0.29  -999.99    -0.29      0.0000      0.00 LINEAR  1.2084E+00   -144.64  0.0000E+00      0.00
   90.00    299.00     -0.36  -999.99    -0.36      0.0000      0.00 LINEAR  1.1994E+00   -136.30  0.0000E+00      0.00
   90.00    300.00     -0.54  -999.99    -0.54      0.0000      0.00 LINEAR  1.1750E+00   -128.22  0.0000E+00      0.00
   90.00    301.00     -0.82  -999.99    -0.82      0.0000      0.00 LINEAR  1.1372E+00   -120.41  0.0000E+00      0.00
   90.00    302.00     -1.20  -999.99    -1.20      0.0000      0.00 LINEAR  1.0882E+00   -112.86  0.0000E+00      0.00
   90.00    303.00     -1.68  -999.99    -1.68      0.0000      0.00 LINEAR  1.0301E+00   -105.59  0.0000E+00      0.00
   90.00    304.00     -2.25  -999.99    -2.25      0.0000      0.00 LINEAR  9.6461E-01    -98.61  0.0000E+00      0.00
   90.00    305.00     -2.91  -999.99    -2.91      0.0000      0.00 LINEAR  8.9362E-01    -91.96  0.0000E+00      0.00
   90.00    306.00     -3.67  -999.99    -3.67      0.0000      0.00 LINEAR  8.1876E-01    -85.67  0.0000E+00      0.00
   90.00    307.00     -4.53  -999.99    -4.53      0.0000      0.00 LINEAR  7.4154E-01    -79.81  0.0000E+00      0.00
   90.00    308.00     -5.50  -999.99    -5.50      0.0000      0.00 LINEAR  6.6340E-01    -74.47  0.0000E+00      0.00
   90.00    309.00     -6.58  -999.99    -6.58      0.0000      0.00 LINEAR  5.8569E-01    -69.77  0.0000E+00      0.00
   90.00    310.00     -7.79  -999.99    -7.79      0.0000      0.00 LINEAR  5.0981E-01    -65.93  0.0000E+00      0.00
   90.00    311.00     -9.12  -999.99    -9.12      0.0000      0.00 LINEAR  4.3723E-01    -63.24  0.0000E+00      0.00
   90.00    312.00    -10.58  -999.99   -10.58      0.0000      0.00 LINEAR  3.6977E-01    -62.18  0.0000E+00      0.00
   90.00    313.00    -12.12  -999.99   -12.12      0.0000      0.00 LINEAR  3.0980E-01    -63.39  0.0000E+00      0.00
   90.00    314.00    -13.62  -999.99   -13.62      0.0000      0.00 LINEAR  2.6067E-01    -67.69  0.0000E+00      0.00
   90.00    315.00    -14.83  -999.99   -14.83      0.0000      0.00 LINEAR  2.2675E-01    -75.51  0.0000E+00      0.00
   90.00    316.00    -15.41  -999.99   -15.41      0.0000      0.00 LINEAR  2.1202E-01    -85.89  0.0000E+00      0.00
   90.00    317.00    -15.21  -999.99   -15.21      0.0000      0.00 LINEAR  2.1691E-01    -96.03  0.0000E+00      0.00
   90.00    318.00    -14.44  -999.99   -14.44      0.0000      0.00 LINEAR  2.3696E-01   -103.39  0.0000E+00      0.00
   90.00    319.00    -13.44  -999.99   -13.44      0.0000      0.00 LINEAR  2.6593E-01   -107.34  0.0000E+00      0.00
   90.00    320.00    -12.43  -999.99   -12.43      0.0000      0.00 LINEAR  2.9881E-01   -108.47  0.0000E+00      0.00
   90.00    321.00    -11.50  -999.99   -11.50      0.0000      0.00 LINEAR  3.3241E-01   -107.59  0.0000E+00      0.00
   90.00    322.00    -10.70  -999.99   -10.70      0.0000      0.00 LINEAR  3.6485E-01   -105.31  0.0000E+00      0.00
   90.00    323.00    -10.00  -999.99   -10.00      0.0000      0.00 LINEAR  3.9505E-01   -102.08  0.0000E+00      0.00
   90.00    324.00     -9.42  -999.99    -9.42      0.0000      0.00 LINEAR  4.2244E-01    -98.18  0.0000E+00      0.00
   90.00    325.00     -8.94  -999.99    -8.94      0.0000      0.00 LINEAR  4.4669E-01    -93.82  0.0000E+00      0.00
   90.00    326.00     -8.54  -999.99    -8.54      0.0000      0.00 LINEAR  4.6769E-01    -89.13  0.0000E+00      0.00
   90.00    327.00     -8.21  -999.99    -8.21      0.0000      0.00 LINEAR  4.8546E-01    -84.20  0.0000E+00      0.00
   90.00    328.00     -7.96  -999.99    -7.96      0.0000      0.00 LINEAR  5.0007E-01    -79.10  0.0000E+00      0.00
   90.00    329.00     -7.76  -999.99    -7.76      0.0000      0.00 LINEAR  5.1168E-01    -73.89  0.0000E+00      0.00
   90.00    330.00     -7.61  -999.99    -7.61      0.0000      0.00 LINEAR  5.2047E-01    -68.61  0.0000E+00      0.00
   90.00    331.00     -7.51  -999.99    -7.51      0.0000      0.00 LINEAR  5.2667E-01    -63.28  0.0000E+00      0.00
   90.00    332.00     -7.44  -999.99    -7.44      0.0000      0.00 LINEAR  5.3052E-01    -57.94  0.0000E+00      0.00
   90.00    333.00     -7.42  -999.99    -7.42      0.0000      0.00 LINEAR  5.3227E-01    -52.60  0.0000E+00      0.00
   90.00    334.00     -7.42  -999.99    -7.42      0.0000      0.00 LINEAR  5.3217E-01    -47.27  0.0000E+00      0.00
   90.00    335.00     -7.44  -999.99    -7.44      0.0000      0.00 LINEAR  5.3047E-01    -41.99  0.0000E+00      0.00
   90.00    336.00     -7.49  -999.99    -7.49      0.0000      0.00 LINEAR  5.2743E-01    -36.76  0.0000E+00      0.00
   90.00    337.00     -7.56  -999.99    -7.56      0.0000      0.00 LINEAR  5.2328E-01    -31.59  0.0000E+00      0.00
   90.00    338.00     -7.65  -999.99    -7.65      0.0000      0.00 LINEAR  5.1824E-01    -26.50  0.0000E+00      0.00
   90.00    339.00     -7.74  -999.99    -7.74      0.0000      0.00 LINEAR  5.1253E-01    -21.51  0.0000E+00      0.00
   90.00    340.00     -7.85  -999.99    -7.85      0.0000      0.00 LINEAR  5.0634E-01    -16.62  0.0000E+00      0.00
   90.00    341.00     -7.96  -999.99    -7.96      0.0000      0.00 LINEAR  4.9985E-01    -11.85  0.0000E+00      0.00
   90.00    342.00     -8.08  -999.99    -8.08      0.0000      0.00 LINEAR  4.9320E-01     -7.22  0.0000E+00      0.00
   90.00    343.00     -8.20  -999.99    -8.20      0.0000      0.00 LINEAR  4.8653E-01     -2.73  0.0000E+00      0.00
   90.00    344.00     -8.31  -999.99    -8.31      0.0000      0.00 LINEAR  4.7996E-01      1.60  0.0000E+00      0.00
   90.00    345.00     -8.43  -999.99    -8.43      0.0000      0.00 LINEAR  4.7358E-01      5.75  0.0000E+00      0.00
   90.00    346.00     -8.54  -999.99    -8.54      0.0000      0.00 LINEAR  4.6747E-01      9.71  0.0000E+00      0.00
   90.00    347.00     -8.65  -999.99    -8.65      0.0000      0.00 LINEAR  4.6169E-01     13.47  0.0000E+00      0.00
   90.00    348.00     -8.75  -999.99    -8.75      0.0000      0.00 LINEAR  4.5630E-01     17.01  0.0000E+00      0.00
   90.00    349.00     -8.85  -999.99    -8.85      0.0000      0.00 LINEAR  4.5132E-01     20.32  0.0000E+00      0.00
   90.00    350.00     -8.94  -999.99    -8.94      0.0000      0.00 LINEAR  4.4678E-01     23.38  0.0000E+00      0.00
   90.00    351.00     -9.02  -999.99    -9.02      0.0000      0.00 LINEAR  4.4268E-01     26.19  0.0000E+00      0.00
   90.00    352.00     -9.09  -999.99    -9.09      0.0000      0.00 LINEAR  4.3904E-01     28.74  0.0000E+00      0.00
   90.00    353.00     -9.15  -999.99    -9.15      0.0000      0.00 LINEAR  4.3586E-01     31.01  0.0000E+00      0.00
   90.00    354.00     -9.21  -999.99    -9.21      0.0000      0.00 LINEAR  4.3312E-01     32.99  0.0000E+00      0.00
   90.00    355.00     -9.25  -999.99    -9.25      0.0000      0.00 LINEAR  4.3082E-01     34.68  0.0000E+00      0.00
   90.00    356.00     -9.29  -999.99    -9.29      0.0000      0.00 LINEAR  4.2896E-01     36.08  0.0000E+00      0.00
   90.00    357.00     -9.32  -999.99    -9.32      0.0000      0.00 LINEAR  4.2752E-01     37.17  0.0000E+00      0.00
   90.00    358.00     -9.34  -999.99    -9.34      0.0000      0.00 LINEAR  4.2650E-01     37.95  0.0000E+00      0.00
   90.00    359.00     -9.35  -999.99    -9.35      0.0000      0.00 LINEAR  4.2589E-01     38.42  0.0000E+00      0.00
   90.00    360.00     -9.36  -999.99    -9.36      0.0000      0.00 LINEAR  4.2569E-01     38.57  0.0000E+00      0.00








*****  DATA CARD N0.  13 EN   0     1   361  1000 9.00000E+001 0.00000E+000 0.00000E+000 1.00000E+000 0.00000E+000 0.00000E+000

  TOTAL RUN TIME: 20 msec