


                                __________________________________________
                               |                                          |
                               | NUMERICAL ELECTROMAGNETICS CODE (nec2++) |
                               | Translated to 'C++' in Double Precision  |
                               |        Version 1.5.4 [2014-12-06]        |
                               |__________________________________________|



                               ---------------- COMMENTS ----------------
                                forw: 90, 0 ; back: 0, 0
                               



                                -------- STRUCTURE SPECIFICATION --------
                                COORDINATES MUST BE INPUT IN
                                METERS OR BE SCALED TO METERS
                                BEFORE STRUCTURE INPUT IS ENDED
  WIRE                                                                                 SEG FIRST  LAST  TAG
   No:        X1         Y1         Z1         X2         Y2         Z2       RADIUS   No:   SEG   SEG  No:

     1      0.0000     0.0000     0.0000     0.0000     0.0000     0.0582     0.0004     7     1     7    1
     2      0.0625     0.0000     0.0000     0.0625     0.0000     0.0582     0.0004     7     8    14    2
     3      0.1250     0.0000     0.0000     0.1250     0.0000     0.0582     0.0004     7    15    21    3
     4      0.1875     0.0000     0.0000     0.1875     0.0000     0.0582     0.0004     7    22    28    4
     5      0.2500     0.0000     0.0000     0.2500     0.0000     0.0582     0.0004     7    29    35    5
     6      0.3125     0.0000     0.0000     0.3125     0.0000     0.0582     0.0004     7    36    42    6
     7      0.3750     0.0000     0.0000     0.3750     0.0000     0.0582     0.0004     7    43    49    7
     8      0.4375     0.0000     0.0000     0.4375     0.0000     0.0582     0.0004     7    50    56    8

     TOTAL SEGMENTS USED: 56   SEGMENTS IN A SYMMETRIC CELL: 56   SYMMETRY FLAG: 0


                               ---------- SEGMENTATION DATA ----------
                                        COORDINATES IN METERS
                            I+ AND I- INDICATE THE SEGMENTS BEFORE AND AFTER I

   SEG    COORDINATES OF SEGM CENTER     SEGM    ORIENTATION ANGLES    WIRE    CONNECTION DATA   TAG
   No:       X         Y         Z      LENGTH     ALPHA      BETA    RADIUS    I-     I    I+   NO:
     1    0.0000    0.0000    0.0042    0.0083   90.0000    0.0000    0.0004     0     1     2     1
     2    0.0000    0.0000    0.0125    0.0083   90.0000    0.0000    0.0004     1     2     3     1
     3    0.0000    0.0000    0.0208    0.0083   90.0000    0.0000    0.0004     2     3     4     1
     4    0.0000    0.0000    0.0291    0.0083   90.0000    0.0000    0.0004     3     4     5     1
     5    0.0000    0.0000    0.0374    0.0083   90.0000    0.0000    0.0004     4     5     6     1
     6    0.0000    0.0000    0.0457    0.0083   90.0000    0.0000    0.0004     5     6     7     1
     7    0.0000    0.0000    0.0540    0.0083   90.0000    0.0000    0.0004     6     7     0     1
     8    0.0625    0.0000    0.0042    0.0083   90.0000    0.0000    0.0004     0     8     9     2
     9    0.0625    0.0000    0.0125    0.0083   90.0000    0.0000    0.0004     8     9    10     2
    10    0.0625    0.0000    0.0208    0.0083   90.0000    0.0000    0.0004     9    10    11     2
    11    0.0625    0.0000    0.0291    0.0083   90.0000    0.0000    0.0004    10    11    12     2
    12    0.0625    0.0000    0.0374    0.0083   90.0000    0.0000    0.0004    11    12    13     2
    13    0.0625    0.0000    0.0457    0.0083   90.0000    0.0000    0.0004    12    13    14     2
    14    0.0625    0.0000    0.0540    0.0083   90.0000    0.0000    0.0004    13    14     0     2
    15    0.1250    0.0000    0.0042    0.0083   90.0000    0.0000    0.0004     0    15    16     3
    16    0.1250    0.0000    0.0125    0.0083   90.0000    0.0000    0.0004    15    16    17     3
    17    0.1250    0.0000    0.0208    0.0083   90.0000    0.0000    0.0004    16    17    18     3
    18    0.1250    0.0000    0.0291    0.0083   90.0000    0.0000    0.0004    17    18    19     3
    19    0.1250    0.0000    0.0374    0.0083   90.0000    0.0000    0.0004    18    19    20     3
    20    0.1250    0.0000    0.0457    0.0083   90.0000    0.0000    0.0004    19    20    21     3
    21    0.1250    0.0000    0.0540    0.0083   90.0000    0.0000    0.0004    20    21     0     3
    22    0.1875    0.0000    0.0042    0.0083   90.0000    0.0000    0.0004     0    22    23     4
    23    0.1875    0.0000    0.0125    0.0083   90.0000    0.0000    0.0004    22    23    24     4
    24    0.1875    0.0000    0.0208    0.0083   90.0000    0.0000    0.0004    23    24    25     4
    25    0.1875    0.0000    0.0291    0.0083   90.0000    0.0000    0.0004    24    25    26     4
    26    0.1875    0.0000    0.0374    0.0083   90.0000    0.0000    0.0004    25    26    27     4
    27    0.1875    0.0000    0.0457    0.0083   90.0000    0.0000    0.0004    26    27    28     4
    28    0.1875    0.0000    0.0540    0.0083   90.0000    0.0000    0.0004    27    28     0     4
    29    0.2500    0.0000    0.0042    0.0083   90.0000    0.0000    0.0004     0    29    30     5
    30    0.2500    0.0000    0.0125    0.0083   90.0000    0.0000    0.0004    29    30    31     5
    31    0.2500    0.0000    0.0208    0.0083   90.0000    0.0000    0.0004    30    31    32     5
    32    0.2500    0.0000    0.0291    0.0083   90.0000    0.0000    0.0004    31    32    33     5
    33    0.2500    0.0000    0.0374    0.0083   90.0000    0.0000    0.0004    32    33    34     5
    34    0.2500    0.0000    0.0457    0.0083   90.0000    0.0000    0.0004    33    34    35     5
    35    0.2500    0.0000    0.0540    0.0083   90.0000    0.0000    0.0004    34    35     0     5
    36    0.3125    0.0000    0.0042    0.0083   90.0000    0.0000    0.0004     0    36    37     6
    37    0.3125    0.0000    0.0125    0.0083   90.0000    0.0000    0.0004    36    37    38     6
    38    0.3125    0.0000    0.0208    0.0083   90.0000    0.0000    0.0004    37    38    39     6
    39    0.3125    0.0000    0.0291    0.0083   90.0000    0.0000    0.0004    38    39    40     6
    40    0.3125    0.0000    0.0374    0.0083   90.0000    0.0000    0.0004    39    40    41     6
    41    0.3125    0.0000    0.0457    0.0083   90.0000    0.0000    0.0004    40    41    42     6
    42    0.3125    0.0000    0.0540    0.0083   90.0000    0.0000    0.0004    41    42     0     6
    43    0.3750    0.0000    0.0042    0.0083   90.0000    0.0000    0.0004     0    43    44     7
    44    0.3750    0.0000    0.0125    0.0083   90.0000    0.0000    0.0004    43    44    45     7
    45    0.3750    0.0000    0.0208    0.0083   90.0000    0.0000    0.0004    44    45    46     7
    46    0.3750    0.0000    0.0291    0.0083   90.0000    0.0000    0.0004    45    46    47     7
    47    0.3750    0.0000    0.0374    0.0083   90.0000    0.0000    0.0004    46    47    48     7
    48    0.3750    0.0000    0.0457    0.0083   90.0000    0.0000    0.0004    47    48    49     7
    49    0.3750    0.0000    0.0540    0.0083   90.0000    0.0000    0.0004    48    49     0     7
    50    0.4375    0.0000    0.0042    0.0083   90.0000    0.0000    0.0004     0    50    51     8
    51    0.4375    0.0000    0.0125    0.0083   90.0000    0.0000    0.0004    50    51    52     8
    52    0.4375    0.0000    0.0208    0.0083   90.0000    0.0000    0.0004    51    52    53     8
    53    0.4375    0.0000    0.0291    0.0083   90.0000    0.0000    0.0004    52    53    54     8
    54    0.4375    0.0000    0.0374    0.0083   90.0000    0.0000    0.0004    53    54    55     8
    55    0.4375    0.0000    0.0457    0.0083   90.0000    0.0000    0.0004    54    55    56     8
    56    0.4375    0.0000    0.0540    0.0083   90.0000    0.0000    0.0004    55    56     0     8



*****  DATA CARD N0.   1 EK   0     0     0     0 0.00000E+000 0.00000E+000 0.00000E+000 0.00000E+000 0.00000E+000 0.00000E+000
*****  DATA CARD N0.   2 EX   0     1     4     0 4.52825E-001 0.00000E+000 0.00000E+000 0.00000E+000 0.00000E+000 0.00000E+000
*****  DATA CARD N0.   3 EX   0     2     4     0 1.26258E-001 0.00000E+000 0.00000E+000 0.00000E+000 0.00000E+000 0.00000E+000
*****  DATA CARD N0.   4 EX   0     3     4     0 3.70186E-001 0.00000E+000 0.00000E+000 0.00000E+000 0.00000E+000 0.00000E+000
*****  DATA CARD N0.   5 EX   0     4     4     0 7.73786E-001 0.00000E+000 0.00000E+000 0.00000E+000 0.00000E+000 0.00000E+000
*****  DATA CARD N0.   6 EX   0     5     4     0 5.72125E-001 0.00000E+000 0.00000E+000 0.00000E+000 0.00000E+000 0.00000E+000
*****  DATA CARD N0.   7 EX   0     6     4     0 8.32292E-001 0.00000E+000 0.00000E+000 0.00000E+000 0.00000E+000 0.00000E+000
*****  DATA CARD N0.   8 EX   0     7     4     0 2.15923E-001 0.00000E+000 0.00000E+000 0.00000E+000 0.00000E+000 0.00000E+000
*****  DATA CARD N0.   9 EX   0     8     4     0 5.67619E-001 0.00000E+000 0.00000E+000 0.00000E+000 0.00000E+000 0.00000E+000
*****  DATA CARD N0.  10 GN  -1     0     0     0 0.00000E+000 0.00000E+000 0.00000E+000 0.00000E+000 0.00000E+000 0.00000E+000
*****  DATA CARD N0.  11 FR   0     1     0     0 2.40000E+003 0.00000E+000 0.00000E+000 0.00000E+000 0.00000E+000 0.00000E+000
*****  DATA CARD N0.  12 RP   0     1   361  1000 9.00000E+001 0.00000E+000 0.00000E+000 1.00000E+000 0.00000E+000 0.00000E+000


                               --------- FREQUENCY --------
                               FREQUENCY= 2.4000E+003 MHZ
                               WAVELENGTH=1.2491E-001 METERS


                        APPROXIMATE INTEGRATION EMPLOYED FOR SEGMENTS
                        THAT ARE MORE THAN 1.000 WAVELENGTHS APART
                        THE EXTENDED THIN WIRE KERNEL WILL BE USED



                          ------ STRUCTURE IMPEDANCE LOADING ------
                                 THIS STRUCTURE IS NOT LOADED



                            -------- ANTENNA ENVIRONMENT --------
                            FREE SPACE



                             ---------- MATRIX TIMING ----------
                               FILL= 9 msec  FACTOR: 0 msec


                      ----- ANTENNA INPUT PARAMETERS -----
  TAG   SEG       VOLTAGE (VOLTS)         CURRENT (AMPS)         IMPEDANCE (OHMS)        ADMITTANCE (MHOS)     POWER
  NO.   NO.     REAL      IMAGINARY     REAL      IMAGINARY     REAL      IMAGINARY    REAL       IMAGINARY   (WATTS)
   1     4  4.5283E-01  0.0000E+00  6.2162E-03  1.3904E-03  6.9375E+01 -1.5517E+01  1.3728E-02  3.0705E-03  1.4074E-03
   2    11  1.2626E-01  0.0000E+00  1.8058E-03  3.1714E-03  1.7118E+01 -3.0064E+01  1.4302E-02  2.5119E-02  1.1400E-04
   3    18  3.7019E-01  0.0000E+00  5.2738E-03  3.7164E-03  4.6902E+01 -3.3051E+01  1.4246E-02  1.0039E-02  9.7615E-04
   4    25  7.7379E-01  0.0000E+00  9.8272E-03  5.6503E-03  5.9176E+01 -3.4024E+01  1.2700E-02  7.3022E-03  3.8021E-03
   5    32  5.7212E-01  0.0000E+00  9.1918E-03  7.3012E-03  3.8164E+01 -3.0314E+01  1.6066E-02  1.2762E-02  2.6294E-03
   6    39  8.3229E-01  0.0000E+00  9.7598E-03  4.9075E-03  6.8068E+01 -3.4226E+01  1.1726E-02  5.8963E-03  4.0615E-03
   7    46  2.1592E-01  0.0000E+00  4.6651E-03  5.6020E-03  1.8954E+01 -2.2760E+01  2.1605E-02  2.5944E-02  5.0365E-04
   8    53  5.6762E-01  0.0000E+00  6.5869E-03  1.5756E-03  8.1510E+01 -1.9497E+01  1.1604E-02  2.7758E-03  1.8694E-03







                        ----- CURRENTS AND LOCATION -----
                            DISTANCES IN WAVELENGTHS 

   SEG  TAG    COORDINATES OF SEGM CENTER     SEGM    ------------- CURRENT (AMPS) -------------
   No:  No:       X         Y         Z      LENGTH     REAL      IMAGINARY    MAGN        PHASE
     1    1    0.0000    0.0000    0.0333   0.06655  1.7643E-03  1.5860E-04  1.7715E-03    5.137 
     2    1    0.0000    0.0000    0.0998   0.06655  4.1796E-03  5.1252E-04  4.2109E-03    6.991 
     3    1    0.0000    0.0000    0.1664   0.06655  5.6903E-03  9.6196E-04  5.7710E-03    9.595 
     4    1    0.0000    0.0000    0.2329   0.06655  6.2162E-03  1.3904E-03  6.3698E-03   12.608 
     5    1    0.0000    0.0000    0.2995   0.06655  5.6903E-03  9.6196E-04  5.7710E-03    9.595 
     6    1    0.0000    0.0000    0.3660   0.06655  4.1796E-03  5.1252E-04  4.2109E-03    6.991 
     7    1    0.0000    0.0000    0.4326   0.06655  1.7643E-03  1.5860E-04  1.7715E-03    5.137 
     8    2    0.5003    0.0000    0.0333   0.06655  5.1725E-04  8.3685E-04  9.8380E-04   58.280 
     9    2    0.5003    0.0000    0.0998   0.06655  1.2191E-03  2.0173E-03  2.3570E-03   58.853 
    10    2    0.5003    0.0000    0.1664   0.06655  1.6547E-03  2.8173E-03  3.2673E-03   59.573 
    11    2    0.5003    0.0000    0.2329   0.06655  1.8058E-03  3.1714E-03  3.6495E-03   60.343 
    12    2    0.5003    0.0000    0.2995   0.06655  1.6547E-03  2.8173E-03  3.2673E-03   59.573 
    13    2    0.5003    0.0000    0.3660   0.06655  1.2191E-03  2.0173E-03  2.3570E-03   58.853 
    14    2    0.5003    0.0000    0.4326   0.06655  5.1725E-04  8.3685E-04  9.8380E-04   58.280 
    15    3    1.0007    0.0000    0.0333   0.06655  1.5012E-03  8.6558E-04  1.7329E-03   29.967 
    16    3    1.0007    0.0000    0.0998   0.06655  3.5506E-03  2.1574E-03  4.1546E-03   31.284 
    17    3    1.0007    0.0000    0.1664   0.06655  4.8292E-03  3.1492E-03  5.7653E-03   33.109 
    18    3    1.0007    0.0000    0.2329   0.06655  5.2738E-03  3.7164E-03  6.4517E-03   35.172 
    19    3    1.0007    0.0000    0.2995   0.06655  4.8292E-03  3.1492E-03  5.7653E-03   33.109 
    20    3    1.0007    0.0000    0.3660   0.06655  3.5506E-03  2.1574E-03  4.1546E-03   31.284 
    21    3    1.0007    0.0000    0.4326   0.06655  1.5012E-03  8.6558E-04  1.7329E-03   29.967 
    22    4    1.5010    0.0000    0.0333   0.06655  2.7937E-03  1.2035E-03  3.0419E-03   23.306 
    23    4    1.5010    0.0000    0.0998   0.06655  6.6122E-03  3.0807E-03  7.2947E-03   24.981 
    24    4    1.5010    0.0000    0.1664   0.06655  8.9974E-03  4.6423E-03  1.0124E-02   27.292 
    25    4    1.5010    0.0000    0.2329   0.06655  9.8272E-03  5.6503E-03  1.1336E-02   29.898 
    26    4    1.5010    0.0000    0.2995   0.06655  8.9974E-03  4.6423E-03  1.0124E-02   27.292 
    27    4    1.5010    0.0000    0.3660   0.06655  6.6122E-03  3.0807E-03  7.2947E-03   24.981 
    28    4    1.5010    0.0000    0.4326   0.06655  2.7937E-03  1.2035E-03  3.0419E-03   23.306 
    29    5    2.0014    0.0000    0.0333   0.06655  2.6165E-03  1.7814E-03  3.1654E-03   34.247 
    30    5    2.0014    0.0000    0.0998   0.06655  6.1883E-03  4.3830E-03  7.5833E-03   35.309 
    31    5    2.0014    0.0000    0.1664   0.06655  8.4168E-03  6.2933E-03  1.0509E-02   36.786 
    32    5    2.0014    0.0000    0.2329   0.06655  9.1918E-03  7.3012E-03  1.1739E-02   38.461 
    33    5    2.0014    0.0000    0.2995   0.06655  8.4168E-03  6.2933E-03  1.0509E-02   36.786 
    34    5    2.0014    0.0000    0.3660   0.06655  6.1883E-03  4.3830E-03  7.5833E-03   35.309 
    35    5    2.0014    0.0000    0.4326   0.06655  2.6165E-03  1.7814E-03  3.1654E-03   34.247 
    36    6    2.5017    0.0000    0.0333   0.06655  2.7741E-03  9.6102E-04  2.9358E-03   19.108 
    37    6    2.5017    0.0000    0.0998   0.06655  6.5663E-03  2.5255E-03  7.0353E-03   21.037 
    38    6    2.5017    0.0000    0.1664   0.06655  8.9355E-03  3.9217E-03  9.7582E-03   23.696 
    39    6    2.5017    0.0000    0.2329   0.06655  9.7598E-03  4.9075E-03  1.0924E-02   26.694 
    40    6    2.5017    0.0000    0.2995   0.06655  8.9355E-03  3.9217E-03  9.7582E-03   23.696 
    41    6    2.5017    0.0000    0.3660   0.06655  6.5663E-03  2.5255E-03  7.0353E-03   21.037 
    42    6    2.5017    0.0000    0.4326   0.06655  2.7741E-03  9.6102E-04  2.9358E-03   19.108 
    43    7    3.0020    0.0000    0.0333   0.06655  1.3308E-03  1.4839E-03  1.9932E-03   48.113 
    44    7    3.0020    0.0000    0.0998   0.06655  3.1437E-03  3.5718E-03  4.7582E-03   48.647 
    45    7    3.0020    0.0000    0.1664   0.06655  4.2728E-03  4.9820E-03  6.5633E-03   49.382 
    46    7    3.0020    0.0000    0.2329   0.06655  4.6651E-03  5.6020E-03  7.2901E-03   50.214 
    47    7    3.0020    0.0000    0.2995   0.06655  4.2728E-03  4.9820E-03  6.5633E-03   49.382 
    48    7    3.0020    0.0000    0.3660   0.06655  3.1437E-03  3.5718E-03  4.7582E-03   48.647 
    49    7    3.0020    0.0000    0.4326   0.06655  1.3308E-03  1.4839E-03  1.9932E-03   48.113 
    50    8    3.5024    0.0000    0.0333   0.06655  1.8707E-03  1.4976E-04  1.8767E-03    4.577 
    51    8    3.5024    0.0000    0.0998   0.06655  4.4301E-03  5.2840E-04  4.4615E-03    6.802 
    52    8    3.5024    0.0000    0.1664   0.06655  6.0301E-03  1.0522E-03  6.1212E-03    9.898 
    53    8    3.5024    0.0000    0.2329   0.06655  6.5869E-03  1.5756E-03  6.7728E-03   13.452 
    54    8    3.5024    0.0000    0.2995   0.06655  6.0301E-03  1.0522E-03  6.1212E-03    9.898 
    55    8    3.5024    0.0000    0.3660   0.06655  4.4301E-03  5.2840E-04  4.4615E-03    6.802 
    56    8    3.5024    0.0000    0.4326   0.06655  1.8707E-03  1.4976E-04  1.8767E-03    4.577 






                               ---------- POWER BUDGET ---------
                               INPUT POWER   = 1.5364E-002 Watts
                               RADIATED POWER= 1.5364E-002 Watts
                               STRUCTURE LOSS= 0.0000E+000 Watts
                               NETWORK LOSS  = 0.0000E+000 Watts
                               EFFICIENCY    =  100.00 Percent


                         ----- RADIATION PATTERNS -----
 ---- ANGLES -----     ----- POWER GAINS -----       ---- POLARIZATION ----   ---- E(THETA) ----    ----- E(PHI) ------
  THETA      PHI       VERTC   HORIZ   TOTAL       AXIAL      TILT  SENSE   MAGNITUDE    PHASE    MAGNITUDE     PHASE
 DEGREES   DEGREES        DB       DB       DB       RATIO   DEGREES            VOLTS/M   DEGREES     VOLTS/M   DEGREES
   90.00      0.00    -11.82  -999.99   -11.82      0.0000      0.00 LINEAR  2.4622E-01   -140.33  0.0000E+00      0.00
   90.00      1.00    -11.79  -999.99   -11.79      0.0000      0.00 LINEAR  2.4698E-01   -140.64  0.0000E+00      0.00
   90.00      2.00    -11.71  -999.99   -11.71      0.0000      0.00 LINEAR  2.4928E-01   -141.57  0.0000E+00      0.00
   90.00      3.00    -11.58  -999.99   -11.58      0.0000      0.00 LINEAR  2.5317E-01   -143.09  0.0000E+00      0.00
   90.00      4.00    -11.39  -999.99   -11.39      0.0000      0.00 LINEAR  2.5875E-01   -145.16  0.0000E+00      0.00
   90.00      5.00    -11.14  -999.99   -11.14      0.0000      0.00 LINEAR  2.6612E-01   -147.73  0.0000E+00      0.00
   90.00      6.00    -10.84  -999.99   -10.84      0.0000      0.00 LINEAR  2.7540E-01   -150.74  0.0000E+00      0.00
   90.00      7.00    -10.49  -999.99   -10.49      0.0000      0.00 LINEAR  2.8672E-01   -154.12  0.0000E+00      0.00
   90.00      8.00    -10.10  -999.99   -10.10      0.0000      0.00 LINEAR  3.0018E-01   -157.81  0.0000E+00      0.00
   90.00      9.00     -9.65  -999.99    -9.65      0.0000      0.00 LINEAR  3.1584E-01   -161.74  0.0000E+00      0.00
   90.00     10.00     -9.18  -999.99    -9.18      0.0000      0.00 LINEAR  3.3375E-01   -165.86  0.0000E+00      0.00
   90.00     11.00     -8.67  -999.99    -8.67      0.0000      0.00 LINEAR  3.5391E-01   -170.12  0.0000E+00      0.00
   90.00     12.00     -8.13  -999.99    -8.13      0.0000      0.00 LINEAR  3.7627E-01   -174.48  0.0000E+00      0.00
   90.00     13.00     -7.59  -999.99    -7.59      0.0000      0.00 LINEAR  4.0076E-01   -178.92  0.0000E+00      0.00
   90.00     14.00     -7.03  -999.99    -7.03      0.0000      0.00 LINEAR  4.2723E-01    176.58  0.0000E+00      0.00
   90.00     15.00     -6.47  -999.99    -6.47      0.0000      0.00 LINEAR  4.5552E-01    172.03  0.0000E+00      0.00
   90.00     16.00     -5.92  -999.99    -5.92      0.0000      0.00 LINEAR  4.8540E-01    167.43  0.0000E+00      0.00
   90.00     17.00     -5.38  -999.99    -5.38      0.0000      0.00 LINEAR  5.1661E-01    162.78  0.0000E+00      0.00
   90.00     18.00     -4.85  -999.99    -4.85      0.0000      0.00 LINEAR  5.4885E-01    158.08  0.0000E+00      0.00
   90.00     19.00     -4.35  -999.99    -4.35      0.0000      0.00 LINEAR  5.8175E-01    153.31  0.0000E+00      0.00
   90.00     20.00     -3.87  -999.99    -3.87      0.0000      0.00 LINEAR  6.1492E-01    148.46  0.0000E+00      0.00
   90.00     21.00     -3.41  -999.99    -3.41      0.0000      0.00 LINEAR  6.4792E-01    143.54  0.0000E+00      0.00
   90.00     22.00     -2.99  -999.99    -2.99      0.0000      0.00 LINEAR  6.8026E-01    138.53  0.0000E+00      0.00
   90.00     23.00     -2.60  -999.99    -2.60      0.0000      0.00 LINEAR  7.1140E-01    133.42  0.0000E+00      0.00
   90.00     24.00     -2.25  -999.99    -2.25      0.0000      0.00 LINEAR  7.4078E-01    128.20  0.0000E+00      0.00
   90.00     25.00     -1.94  -999.99    -1.94      0.0000      0.00 LINEAR  7.6778E-01    122.86  0.0000E+00      0.00
   90.00     26.00     -1.67  -999.99    -1.67      0.0000      0.00 LINEAR  7.9177E-01    117.40  0.0000E+00      0.00
   90.00     27.00     -1.45  -999.99    -1.45      0.0000      0.00 LINEAR  8.1208E-01    111.81  0.0000E+00      0.00
   90.00     28.00     -1.28  -999.99    -1.28      0.0000      0.00 LINEAR  8.2804E-01    106.09  0.0000E+00      0.00
   90.00     29.00     -1.17  -999.99    -1.17      0.0000      0.00 LINEAR  8.3898E-01    100.21  0.0000E+00      0.00
   90.00     30.00     -1.11  -999.99    -1.11      0.0000      0.00 LINEAR  8.4423E-01     94.19  0.0000E+00      0.00
   90.00     31.00     -1.13  -999.99    -1.13      0.0000      0.00 LINEAR  8.4316E-01     88.00  0.0000E+00      0.00
   90.00     32.00     -1.21  -999.99    -1.21      0.0000      0.00 LINEAR  8.3518E-01     81.65  0.0000E+00      0.00
   90.00     33.00     -1.37  -999.99    -1.37      0.0000      0.00 LINEAR  8.1978E-01     75.11  0.0000E+00      0.00
   90.00     34.00     -1.62  -999.99    -1.62      0.0000      0.00 LINEAR  7.9653E-01     68.39  0.0000E+00      0.00
   90.00     35.00     -1.97  -999.99    -1.97      0.0000      0.00 LINEAR  7.6509E-01     61.46  0.0000E+00      0.00
   90.00     36.00     -2.43  -999.99    -2.43      0.0000      0.00 LINEAR  7.2530E-01     54.30  0.0000E+00      0.00
   90.00     37.00     -3.03  -999.99    -3.03      0.0000      0.00 LINEAR  6.7712E-01     46.89  0.0000E+00      0.00
   90.00     38.00     -3.79  -999.99    -3.79      0.0000      0.00 LINEAR  6.2070E-01     39.17  0.0000E+00      0.00
   90.00     39.00     -4.74  -999.99    -4.74      0.0000      0.00 LINEAR  5.5640E-01     31.08  0.0000E+00      0.00
   90.00     40.00     -5.93  -999.99    -5.93      0.0000      0.00 LINEAR  4.8481E-01     22.48  0.0000E+00      0.00
   90.00     41.00     -7.46  -999.99    -7.46      0.0000      0.00 LINEAR  4.0683E-01     13.16  0.0000E+00      0.00
   90.00     42.00     -9.44  -999.99    -9.44      0.0000      0.00 LINEAR  3.2372E-01      2.62  0.0000E+00      0.00
   90.00     43.00    -12.13  -999.99   -12.13      0.0000      0.00 LINEAR  2.3751E-01    -10.36  0.0000E+00      0.00
   90.00     44.00    -15.98  -999.99   -15.98      0.0000      0.00 LINEAR  1.5241E-01    -29.69  0.0000E+00      0.00
   90.00     45.00    -21.07  -999.99   -21.07      0.0000      0.00 LINEAR  8.4899E-02    -71.84  0.0000E+00      0.00
   90.00     46.00    -20.04  -999.99   -20.04      0.0000      0.00 LINEAR  9.5576E-02   -143.17  0.0000E+00      0.00
   90.00     47.00    -15.10  -999.99   -15.10      0.0000      0.00 LINEAR  1.6865E-01   -177.75  0.0000E+00      0.00
   90.00     48.00    -11.64  -999.99   -11.64      0.0000      0.00 LINEAR  2.5128E-01    164.36  0.0000E+00      0.00
   90.00     49.00     -9.23  -999.99    -9.23      0.0000      0.00 LINEAR  3.3148E-01    151.15  0.0000E+00      0.00
   90.00     50.00     -7.49  -999.99    -7.49      0.0000      0.00 LINEAR  4.0515E-01    139.69  0.0000E+00      0.00
   90.00     51.00     -6.21  -999.99    -6.21      0.0000      0.00 LINEAR  4.6969E-01    129.00  0.0000E+00      0.00
   90.00     52.00     -5.27  -999.99    -5.27      0.0000      0.00 LINEAR  5.2306E-01    118.66  0.0000E+00      0.00
   90.00     53.00     -4.62  -999.99    -4.62      0.0000      0.00 LINEAR  5.6356E-01    108.48  0.0000E+00      0.00
   90.00     54.00     -4.23  -999.99    -4.23      0.0000      0.00 LINEAR  5.8987E-01     98.35  0.0000E+00      0.00
   90.00     55.00     -4.07  -999.99    -4.07      0.0000      0.00 LINEAR  6.0102E-01     88.19  0.0000E+00      0.00
   90.00     56.00     -4.13  -999.99    -4.13      0.0000      0.00 LINEAR  5.9650E-01     77.97  0.0000E+00      0.00
   90.00     57.00     -4.43  -999.99    -4.43      0.0000      0.00 LINEAR  5.7625E-01     67.67  0.0000E+00      0.00
   90.00     58.00     -4.98  -999.99    -4.98      0.0000      0.00 LINEAR  5.4075E-01     57.28  0.0000E+00      0.00
   90.00     59.00     -5.82  -999.99    -5.82      0.0000      0.00 LINEAR  4.9099E-01     46.80  0.0000E+00      0.00
   90.00     60.00     -7.01  -999.99    -7.01      0.0000      0.00 LINEAR  4.2847E-01     36.28  0.0000E+00      0.00
   90.00     61.00     -8.63  -999.99    -8.63      0.0000      0.00 LINEAR  3.5522E-01     25.83  0.0000E+00      0.00
   90.00     62.00    -10.90  -999.99   -10.90      0.0000      0.00 LINEAR  2.7376E-01     15.74  0.0000E+00      0.00
   90.00     63.00    -14.20  -999.99   -14.20      0.0000      0.00 LINEAR  1.8714E-01      7.00  0.0000E+00      0.00
   90.00     64.00    -19.67  -999.99   -19.67      0.0000      0.00 LINEAR  9.9725E-02      4.15  0.0000E+00      0.00
   90.00     65.00    -28.67  -999.99   -28.67      0.0000      0.00 LINEAR  3.5368E-02     55.47  0.0000E+00      0.00
   90.00     66.00    -20.39  -999.99   -20.39      0.0000      0.00 LINEAR  9.1751E-02    113.61  0.0000E+00      0.00
   90.00     67.00    -14.98  -999.99   -14.98      0.0000      0.00 LINEAR  1.7113E-01    109.49  0.0000E+00      0.00
   90.00     68.00    -11.80  -999.99   -11.80      0.0000      0.00 LINEAR  2.4676E-01     97.34  0.0000E+00      0.00
   90.00     69.00     -9.61  -999.99    -9.61      0.0000      0.00 LINEAR  3.1734E-01     82.21  0.0000E+00      0.00
   90.00     70.00     -7.94  -999.99    -7.94      0.0000      0.00 LINEAR  3.8477E-01     65.14  0.0000E+00      0.00
   90.00     71.00     -6.51  -999.99    -6.51      0.0000      0.00 LINEAR  4.5339E-01     46.58  0.0000E+00      0.00
   90.00     72.00     -5.17  -999.99    -5.17      0.0000      0.00 LINEAR  5.2955E-01     26.97  0.0000E+00      0.00
   90.00     73.00     -3.79  -999.99    -3.79      0.0000      0.00 LINEAR  6.2049E-01      6.92  0.0000E+00      0.00
   90.00     74.00     -2.34  -999.99    -2.34      0.0000      0.00 LINEAR  7.3273E-01    -12.95  0.0000E+00      0.00
   90.00     75.00     -0.85  -999.99    -0.85      0.0000      0.00 LINEAR  8.7058E-01    -32.12  0.0000E+00      0.00
   90.00     76.00      0.66  -999.99     0.66      0.0000      0.00 LINEAR  1.0355E+00    -50.31  0.0000E+00      0.00
   90.00     77.00      2.13  -999.99     2.13      0.0000      0.00 LINEAR  1.2264E+00    -67.45  0.0000E+00      0.00
   90.00     78.00      3.52  -999.99     3.52      0.0000      0.00 LINEAR  1.4400E+00    -83.62  0.0000E+00      0.00
   90.00     79.00      4.82  -999.99     4.82      0.0000      0.00 LINEAR  1.6717E+00    -98.94  0.0000E+00      0.00
   90.00     80.00      6.00  -999.99     6.00      0.0000      0.00 LINEAR  1.9157E+00   -113.56  0.0000E+00      0.00
   90.00     81.00      7.07  -999.99     7.07      0.0000      0.00 LINEAR  2.1655E+00   -127.60  0.0000E+00      0.00
   90.00     82.00      8.01  -999.99     8.01      0.0000      0.00 LINEAR  2.4144E+00   -141.19  0.0000E+00      0.00
   90.00     83.00      8.84  -999.99     8.84      0.0000      0.00 LINEAR  2.6552E+00   -154.40  0.0000E+00      0.00
   90.00     84.00      9.55  -999.99     9.55      0.0000      0.00 LINEAR  2.8812E+00   -167.30  0.0000E+00      0.00
   90.00     85.00     10.14  -999.99    10.14      0.0000      0.00 LINEAR  3.0855E+00   -179.96  0.0000E+00      0.00
   90.00     86.00     10.63  -999.99    10.63      0.0000      0.00 LINEAR  3.2620E+00    167.59  0.0000E+00      0.00
   90.00     87.00     11.00  -999.99    11.00      0.0000      0.00 LINEAR  3.4055E+00    155.31  0.0000E+00      0.00
   90.00     88.00     11.27  -999.99    11.27      0.0000      0.00 LINEAR  3.5113E+00    143.17  0.0000E+00      0.00
   90.00     89.00     11.43  -999.99    11.43      0.0000      0.00 LINEAR  3.5762E+00    131.15  0.0000E+00      0.00
   90.00     90.00     11.48  -999.99    11.48      0.0000      0.00 LINEAR  3.5980E+00    119.23  0.0000E+00      0.00
   90.00     91.00     11.42  -999.99    11.42      0.0000      0.00 LINEAR  3.5758E+00    107.39  0.0000E+00      0.00
   90.00     92.00     11.26  -999.99    11.26      0.0000      0.00 LINEAR  3.5100E+00     95.62  0.0000E+00      0.00
   90.00     93.00     10.99  -999.99    10.99      0.0000      0.00 LINEAR  3.4022E+00     83.90  0.0000E+00      0.00
   90.00     94.00     10.61  -999.99    10.61      0.0000      0.00 LINEAR  3.2554E+00     72.23  0.0000E+00      0.00
   90.00     95.00     10.11  -999.99    10.11      0.0000      0.00 LINEAR  3.0736E+00     60.58  0.0000E+00      0.00
   90.00     96.00      9.49  -999.99     9.49      0.0000      0.00 LINEAR  2.8618E+00     48.93  0.0000E+00      0.00
   90.00     97.00      8.74  -999.99     8.74      0.0000      0.00 LINEAR  2.6257E+00     37.27  0.0000E+00      0.00
   90.00     98.00      7.86  -999.99     7.86      0.0000      0.00 LINEAR  2.3717E+00     25.54  0.0000E+00      0.00
   90.00     99.00      6.83  -999.99     6.83      0.0000      0.00 LINEAR  2.1064E+00     13.72  0.0000E+00      0.00
   90.00    100.00      5.64  -999.99     5.64      0.0000      0.00 LINEAR  1.8368E+00      1.72  0.0000E+00      0.00
   90.00    101.00      4.27  -999.99     4.27      0.0000      0.00 LINEAR  1.5695E+00    -10.57  0.0000E+00      0.00
   90.00    102.00      2.71  -999.99     2.71      0.0000      0.00 LINEAR  1.3113E+00    -23.30  0.0000E+00      0.00
   90.00    103.00      0.93  -999.99     0.93      0.0000      0.00 LINEAR  1.0686E+00    -36.76  0.0000E+00      0.00
   90.00    104.00     -1.08  -999.99    -1.08      0.0000      0.00 LINEAR  8.4749E-01    -51.39  0.0000E+00      0.00
   90.00    105.00     -3.33  -999.99    -3.33      0.0000      0.00 LINEAR  6.5432E-01    -67.96  0.0000E+00      0.00
   90.00    106.00     -5.73  -999.99    -5.73      0.0000      0.00 LINEAR  4.9612E-01    -87.61  0.0000E+00      0.00
   90.00    107.00     -8.02  -999.99    -8.02      0.0000      0.00 LINEAR  3.8111E-01   -111.67  0.0000E+00      0.00
   90.00    108.00     -9.65  -999.99    -9.65      0.0000      0.00 LINEAR  3.1605E-01   -139.79  0.0000E+00      0.00
   90.00    109.00    -10.19  -999.99   -10.19      0.0000      0.00 LINEAR  2.9684E-01   -167.74  0.0000E+00      0.00
   90.00    110.00     -9.96  -999.99    -9.96      0.0000      0.00 LINEAR  3.0488E-01    169.26  0.0000E+00      0.00
   90.00    111.00     -9.52  -999.99    -9.52      0.0000      0.00 LINEAR  3.2073E-01    152.24  0.0000E+00      0.00
   90.00    112.00     -9.17  -999.99    -9.17      0.0000      0.00 LINEAR  3.3388E-01    140.12  0.0000E+00      0.00
   90.00    113.00     -8.98  -999.99    -8.98      0.0000      0.00 LINEAR  3.4152E-01    131.81  0.0000E+00      0.00
   90.00    114.00     -8.88  -999.99    -8.88      0.0000      0.00 LINEAR  3.4527E-01    126.57  0.0000E+00      0.00
   90.00    115.00     -8.79  -999.99    -8.79      0.0000      0.00 LINEAR  3.4888E-01    123.80  0.0000E+00      0.00
   90.00    116.00     -8.60  -999.99    -8.60      0.0000      0.00 LINEAR  3.5651E-01    122.77  0.0000E+00      0.00
   90.00    117.00     -8.25  -999.99    -8.25      0.0000      0.00 LINEAR  3.7109E-01    122.61  0.0000E+00      0.00
   90.00    118.00     -7.75  -999.99    -7.75      0.0000      0.00 LINEAR  3.9329E-01    122.41  0.0000E+00      0.00
   90.00    119.00     -7.15  -999.99    -7.15      0.0000      0.00 LINEAR  4.2153E-01    121.57  0.0000E+00      0.00
   90.00    120.00     -6.53  -999.99    -6.53      0.0000      0.00 LINEAR  4.5281E-01    119.81  0.0000E+00      0.00
   90.00    121.00     -5.95  -999.99    -5.95      0.0000      0.00 LINEAR  4.8371E-01    117.17  0.0000E+00      0.00
   90.00    122.00     -5.47  -999.99    -5.47      0.0000      0.00 LINEAR  5.1115E-01    113.83  0.0000E+00      0.00
   90.00    123.00     -5.11  -999.99    -5.11      0.0000      0.00 LINEAR  5.3266E-01    110.00  0.0000E+00      0.00
   90.00    124.00     -4.89  -999.99    -4.89      0.0000      0.00 LINEAR  5.4657E-01    105.91  0.0000E+00      0.00
   90.00    125.00     -4.81  -999.99    -4.81      0.0000      0.00 LINEAR  5.5197E-01    101.79  0.0000E+00      0.00
   90.00    126.00     -4.86  -999.99    -4.86      0.0000      0.00 LINEAR  5.4868E-01     97.83  0.0000E+00      0.00
   90.00    127.00     -5.04  -999.99    -5.04      0.0000      0.00 LINEAR  5.3727E-01     94.26  0.0000E+00      0.00
   90.00    128.00     -5.34  -999.99    -5.34      0.0000      0.00 LINEAR  5.1903E-01     91.29  0.0000E+00      0.00
   90.00    129.00     -5.74  -999.99    -5.74      0.0000      0.00 LINEAR  4.9592E-01     89.15  0.0000E+00      0.00
   90.00    130.00     -6.19  -999.99    -6.19      0.0000      0.00 LINEAR  4.7060E-01     88.08  0.0000E+00      0.00
   90.00    131.00     -6.65  -999.99    -6.65      0.0000      0.00 LINEAR  4.4638E-01     88.26  0.0000E+00      0.00
   90.00    132.00     -7.04  -999.99    -7.04      0.0000      0.00 LINEAR  4.2695E-01     89.73  0.0000E+00      0.00
   90.00    133.00     -7.26  -999.99    -7.26      0.0000      0.00 LINEAR  4.1587E-01     92.29  0.0000E+00      0.00
   90.00    134.00     -7.27  -999.99    -7.27      0.0000      0.00 LINEAR  4.1574E-01     95.39  0.0000E+00      0.00
   90.00    135.00     -7.03  -999.99    -7.03      0.0000      0.00 LINEAR  4.2736E-01     98.34  0.0000E+00      0.00
   90.00    136.00     -6.59  -999.99    -6.59      0.0000      0.00 LINEAR  4.4953E-01    100.48  0.0000E+00      0.00
   90.00    137.00     -6.02  -999.99    -6.02      0.0000      0.00 LINEAR  4.7966E-01    101.45  0.0000E+00      0.00
   90.00    138.00     -5.41  -999.99    -5.41      0.0000      0.00 LINEAR  5.1461E-01    101.18  0.0000E+00      0.00
   90.00    139.00     -4.81  -999.99    -4.81      0.0000      0.00 LINEAR  5.5140E-01     99.78  0.0000E+00      0.00
   90.00    140.00     -4.26  -999.99    -4.26      0.0000      0.00 LINEAR  5.8752E-01     97.44  0.0000E+00      0.00
   90.00    141.00     -3.78  -999.99    -3.78      0.0000      0.00 LINEAR  6.2099E-01     94.35  0.0000E+00      0.00
   90.00    142.00     -3.38  -999.99    -3.38      0.0000      0.00 LINEAR  6.5035E-01     90.67  0.0000E+00      0.00
   90.00    143.00     -3.06  -999.99    -3.06      0.0000      0.00 LINEAR  6.7455E-01     86.55  0.0000E+00      0.00
   90.00    144.00     -2.83  -999.99    -2.83      0.0000      0.00 LINEAR  6.9294E-01     82.08  0.0000E+00      0.00
   90.00    145.00     -2.68  -999.99    -2.68      0.0000      0.00 LINEAR  7.0512E-01     77.35  0.0000E+00      0.00
   90.00    146.00     -2.61  -999.99    -2.61      0.0000      0.00 LINEAR  7.1097E-01     72.43  0.0000E+00      0.00
   90.00    147.00     -2.61  -999.99    -2.61      0.0000      0.00 LINEAR  7.1057E-01     67.36  0.0000E+00      0.00
   90.00    148.00     -2.69  -999.99    -2.69      0.0000      0.00 LINEAR  7.0413E-01     62.17  0.0000E+00      0.00
   90.00    149.00     -2.84  -999.99    -2.84      0.0000      0.00 LINEAR  6.9204E-01     56.90  0.0000E+00      0.00
   90.00    150.00     -3.06  -999.99    -3.06      0.0000      0.00 LINEAR  6.7475E-01     51.55  0.0000E+00      0.00
   90.00    151.00     -3.35  -999.99    -3.35      0.0000      0.00 LINEAR  6.5280E-01     46.14  0.0000E+00      0.00
   90.00    152.00     -3.70  -999.99    -3.70      0.0000      0.00 LINEAR  6.2680E-01     40.67  0.0000E+00      0.00
   90.00    153.00     -4.12  -999.99    -4.12      0.0000      0.00 LINEAR  5.9736E-01     35.12  0.0000E+00      0.00
   90.00    154.00     -4.60  -999.99    -4.60      0.0000      0.00 LINEAR  5.6515E-01     29.49  0.0000E+00      0.00
   90.00    155.00     -5.14  -999.99    -5.14      0.0000      0.00 LINEAR  5.3082E-01     23.76  0.0000E+00      0.00
   90.00    156.00     -5.75  -999.99    -5.75      0.0000      0.00 LINEAR  4.9503E-01     17.89  0.0000E+00      0.00
   90.00    157.00     -6.42  -999.99    -6.42      0.0000      0.00 LINEAR  4.5844E-01     11.83  0.0000E+00      0.00
   90.00    158.00     -7.14  -999.99    -7.14      0.0000      0.00 LINEAR  4.2170E-01      5.54  0.0000E+00      0.00
   90.00    159.00     -7.92  -999.99    -7.92      0.0000      0.00 LINEAR  3.8547E-01     -1.07  0.0000E+00      0.00
   90.00    160.00     -8.75  -999.99    -8.75      0.0000      0.00 LINEAR  3.5039E-01     -8.08  0.0000E+00      0.00
   90.00    161.00     -9.62  -999.99    -9.62      0.0000      0.00 LINEAR  3.1714E-01    -15.61  0.0000E+00      0.00
   90.00    162.00    -10.50  -999.99   -10.50      0.0000      0.00 LINEAR  2.8642E-01    -23.77  0.0000E+00      0.00
   90.00    163.00    -11.38  -999.99   -11.38      0.0000      0.00 LINEAR  2.5895E-01    -32.68  0.0000E+00      0.00
   90.00    164.00    -12.21  -999.99   -12.21      0.0000      0.00 LINEAR  2.3546E-01    -42.41  0.0000E+00      0.00
   90.00    165.00    -12.93  -999.99   -12.93      0.0000      0.00 LINEAR  2.1663E-01    -52.92  0.0000E+00      0.00
   90.00    166.00    -13.50  -999.99   -13.50      0.0000      0.00 LINEAR  2.0296E-01    -64.04  0.0000E+00      0.00
   90.00    167.00    -13.86  -999.99   -13.86      0.0000      0.00 LINEAR  1.9461E-01    -75.38  0.0000E+00      0.00
   90.00    168.00    -14.01  -999.99   -14.01      0.0000      0.00 LINEAR  1.9128E-01    -86.47  0.0000E+00      0.00
   90.00    169.00    -13.97  -999.99   -13.97      0.0000      0.00 LINEAR  1.9226E-01    -96.82  0.0000E+00      0.00
   90.00    170.00    -13.77  -999.99   -13.77      0.0000      0.00 LINEAR  1.9655E-01   -106.09  0.0000E+00      0.00
   90.00    171.00    -13.49  -999.99   -13.49      0.0000      0.00 LINEAR  2.0307E-01   -114.16  0.0000E+00      0.00
   90.00    172.00    -13.16  -999.99   -13.16      0.0000      0.00 LINEAR  2.1085E-01   -121.00  0.0000E+00      0.00
   90.00    173.00    -12.83  -999.99   -12.83      0.0000      0.00 LINEAR  2.1908E-01   -126.70  0.0000E+00      0.00
   90.00    174.00    -12.52  -999.99   -12.52      0.0000      0.00 LINEAR  2.2713E-01   -131.38  0.0000E+00      0.00
   90.00    175.00    -12.24  -999.99   -12.24      0.0000      0.00 LINEAR  2.3454E-01   -135.14  0.0000E+00      0.00
   90.00    176.00    -12.00  -999.99   -12.00      0.0000      0.00 LINEAR  2.4097E-01   -138.09  0.0000E+00      0.00
   90.00    177.00    -11.82  -999.99   -11.82      0.0000      0.00 LINEAR  2.4618E-01   -140.31  0.0000E+00      0.00
   90.00    178.00    -11.68  -999.99   -11.68      0.0000      0.00 LINEAR  2.5001E-01   -141.86  0.0000E+00      0.00
   90.00    179.00    -11.60  -999.99   -11.60      0.0000      0.00 LINEAR  2.5234E-01   -142.77  0.0000E+00      0.00
   90.00    180.00    -11.58  -999.99   -11.58      0.0000      0.00 LINEAR  2.5313E-01   -143.07  0.0000E+00      0.00
   90.00    181.00    -11.60  -999.99   -11.60      0.0000      0.00 LINEAR  2.5234E-01   -142.77  0.0000E+00      0.00
   90.00    182.00    -11.68  -999.99   -11.68      0.0000      0.00 LINEAR  2.5001E-01   -141.86  0.0000E+00      0.00
   90.00    183.00    -11.82  -999.99   -11.82      0.0000      0.00 LINEAR  2.4618E-01   -140.31  0.0000E+00      0.00
   90.00    184.00    -12.00  -999.99   -12.00      0.0000      0.00 LINEAR  2.4097E-01   -138.09  0.0000E+00      0.00
   90.00    185.00    -12.24  -999.99   -12.24      0.0000      0.00 LINEAR  2.3454E-01   -135.14  0.0000E+00      0.00
   90.00    186.00    -12.52  -999.99   -12.52      0.0000      0.00 LINEAR  2.2713E-01   -131.38  0.0000E+00      0.00
   90.00    187.00    -12.83  -999.99   -12.83      0.0000      0.00 LINEAR  2.1908E-01   -126.70  0.0000E+00      0.00
   90.00    188.00    -13.16  -999.99   -13.16      0.0000      0.00 LINEAR  2.1085E-01   -121.00  0.0000E+00      0.00
   90.00    189.00    -13.49  -999.99   -13.49      0.0000      0.00 LINEAR  2.0307E-01   -114.16  0.0000E+00      0.00
   90.00    190.00    -13.77  -999.99   -13.77      0.0000      0.00 LINEAR  1.9655E-01   -106.09  0.0000E+00      0.00
   90.00    191.00    -13.97  -999.99   -13.97      0.0000      0.00 LINEAR  1.9226E-01    -96.82  0.0000E+00      0.00
   90.00    192.00    -14.01  -999.99   -14.01      0.0000      0.00 LINEAR  1.9128E-01    -86.47  0.0000E+00      0.00
   90.00    193.00    -13.86  -999.99   -13.86      0.0000      0.00 LINEAR  1.9461E-01    -75.38  0.0000E+00      0.00
   90.00    194.00    -13.50  -999.99   -13.50      0.0000      0.00 LINEAR  2.0296E-01    -64.04  0.0000E+00      0.00
   90.00    195.00    -12.93  -999.99   -12.93      0.0000      0.00 LINEAR  2.1663E-01    -52.92  0.0000E+00      0.00
   90.00    196.00    -12.21  -999.99   -12.21      0.0000      0.00 LINEAR  2.3546E-01    -42.41  0.0000E+00      0.00
   90.00    197.00    -11.38  -999.99   -11.38      0.0000      0.00 LINEAR  2.5895E-01    -32.68  0.0000E+00      0.00
   90.00    198.00    -10.50  -999.99   -10.50      0.0000      0.00 LINEAR  2.8642E-01    -23.77  0.0000E+00      0.00
   90.00    199.00     -9.62  -999.99    -9.62      0.0000      0.00 LINEAR  3.1714E-01    -15.61  0.0000E+00      0.00
   90.00    200.00     -8.75  -999.99    -8.75      0.0000      0.00 LINEAR  3.5039E-01     -8.08  0.0000E+00      0.00
   90.00    201.00     -7.92  -999.99    -7.92      0.0000      0.00 LINEAR  3.8547E-01     -1.07  0.0000E+00      0.00
   90.00    202.00     -7.14  -999.99    -7.14      0.0000      0.00 LINEAR  4.2170E-01      5.54  0.0000E+00      0.00
   90.00    203.00     -6.42  -999.99    -6.42      0.0000      0.00 LINEAR  4.5844E-01     11.83  0.0000E+00      0.00
   90.00    204.00     -5.75  -999.99    -5.75      0.0000      0.00 LINEAR  4.9503E-01     17.89  0.0000E+00      0.00
   90.00    205.00     -5.14  -999.99    -5.14      0.0000      0.00 LINEAR  5.3082E-01     23.76  0.0000E+00      0.00
   90.00    206.00     -4.60  -999.99    -4.60      0.0000      0.00 LINEAR  5.6515E-01     29.49  0.0000E+00      0.00
   90.00    207.00     -4.12  -999.99    -4.12      0.0000      0.00 LINEAR  5.9736E-01     35.12  0.0000E+00      0.00
   90.00    208.00     -3.70  -999.99    -3.70      0.0000      0.00 LINEAR  6.2680E-01     40.67  0.0000E+00      0.00
   90.00    209.00     -3.35  -999.99    -3.35      0.0000      0.00 LINEAR  6.5280E-01     46.14  0.0000E+00      0.00
   90.00    210.00     -3.06  -999.99    -3.06      0.0000      0.00 LINEAR  6.7475E-01     51.55  0.0000E+00      0.00
   90.00    211.00     -2.84  -999.99    -2.84      0.0000      0.00 LINEAR  6.9204E-01     56.90  0.0000E+00      0.00
   90.00    212.00     -2.69  -999.99    -2.69      0.0000      0.00 LINEAR  7.0413E-01     62.17  0.0000E+00      0.00
   90.00    213.00     -2.61  -999.99    -2.61      0.0000      0.00 LINEAR  7.1057E-01     67.36  0.0000E+00      0.00
   90.00    214.00     -2.61  -999.99    -2.61      0.0000      0.00 LINEAR  7.1097E-01     72.43  0.0000E+00      0.00
   90.00    215.00     -2.68  -999.99    -2.68      0.0000      0.00 LINEAR  7.0512E-01     77.35  0.0000E+00      0.00
   90.00    216.00     -2.83  -999.99    -2.83      0.0000      0.00 LINEAR  6.9294E-01     82.08  0.0000E+00      0.00
   90.00    217.00     -3.06  -999.99    -3.06      0.0000      0.00 LINEAR  6.7455E-01     86.55  0.0000E+00      0.00
   90.00    218.00     -3.38  -999.99    -3.38      0.0000      0.00 LINEAR  6.5035E-01     90.67  0.0000E+00      0.00
   90.00    219.00     -3.78  -999.99    -3.78      0.0000      0.00 LINEAR  6.2099E-01     94.35  0.0000E+00      0.00
   90.00    220.00     -4.26  -999.99    -4.26      0.0000      0.00 LINEAR  5.8752E-01     97.44  0.0000E+00      0.00
   90.00    221.00     -4.81  -999.99    -4.81      0.0000      0.00 LINEAR  5.5140E-01     99.78  0.0000E+00      0.00
   90.00    222.00     -5.41  -999.99    -5.41      0.0000      0.00 LINEAR  5.1461E-01    101.18  0.0000E+00      0.00
   90.00    223.00     -6.02  -999.99    -6.02      0.0000      0.00 LINEAR  4.7966E-01    101.45  0.0000E+00      0.00
   90.00    224.00     -6.59  -999.99    -6.59      0.0000      0.00 LINEAR  4.4953E-01    100.48  0.0000E+00      0.00
   90.00    225.00     -7.03  -999.99    -7.03      0.0000      0.00 LINEAR  4.2736E-01     98.34  0.0000E+00      0.00
   90.00    226.00     -7.27  -999.99    -7.27      0.0000      0.00 LINEAR  4.1574E-01     95.39  0.0000E+00      0.00
   90.00    227.00     -7.26  -999.99    -7.26      0.0000      0.00 LINEAR  4.1587E-01     92.29  0.0000E+00      0.00
   90.00    228.00     -7.04  -999.99    -7.04      0.0000      0.00 LINEAR  4.2695E-01     89.73  0.0000E+00      0.00
   90.00    229.00     -6.65  -999.99    -6.65      0.0000      0.00 LINEAR  4.4638E-01     88.26  0.0000E+00      0.00
   90.00    230.00     -6.19  -999.99    -6.19      0.0000      0.00 LINEAR  4.7060E-01     88.08  0.0000E+00      0.00
   90.00    231.00     -5.74  -999.99    -5.74      0.0000      0.00 LINEAR  4.9592E-01     89.15  0.0000E+00      0.00
   90.00    232.00     -5.34  -999.99    -5.34      0.0000      0.00 LINEAR  5.1903E-01     91.29  0.0000E+00      0.00
   90.00    233.00     -5.04  -999.99    -5.04      0.0000      0.00 LINEAR  5.3727E-01     94.26  0.0000E+00      0.00
   90.00    234.00     -4.86  -999.99    -4.86      0.0000      0.00 LINEAR  5.4868E-01     97.83  0.0000E+00      0.00
   90.00    235.00     -4.81  -999.99    -4.81      0.0000      0.00 LINEAR  5.5197E-01    101.79  0.0000E+00      0.00
   90.00    236.00     -4.89  -999.99    -4.89      0.0000      0.00 LINEAR  5.4657E-01    105.91  0.0000E+00      0.00
   90.00    237.00     -5.11  -999.99    -5.11      0.0000      0.00 LINEAR  5.3266E-01    110.00  0.0000E+00      0.00
   90.00    238.00     -5.47  -999.99    -5.47      0.0000      0.00 LINEAR  5.1115E-01    113.83  0.0000E+00      0.00
   90.00    239.00     -5.95  -999.99    -5.95      0.0000      0.00 LINEAR  4.8371E-01    117.17  0.0000E+00      0.00
   90.00    240.00     -6.53  -999.99    -6.53      0.0000      0.00 LINEAR  4.5281E-01    119.81  0.0000E+00      0.00
   90.00    241.00     -7.15  -999.99    -7.15      0.0000      0.00 LINEAR  4.2153E-01    121.57  0.0000E+00      0.00
   90.00    242.00     -7.75  -999.99    -7.75      0.0000      0.00 LINEAR  3.9329E-01    122.41  0.0000E+00      0.00
   90.00    243.00     -8.25  -999.99    -8.25      0.0000      0.00 LINEAR  3.7109E-01    122.61  0.0000E+00      0.00
   90.00    244.00     -8.60  -999.99    -8.60      0.0000      0.00 LINEAR  3.5651E-01    122.77  0.0000E+00      0.00
   90.00    245.00     -8.79  -999.99    -8.79      0.0000      0.00 LINEAR  3.4888E-01    123.80  0.0000E+00      0.00
   90.00    246.00     -8.88  -999.99    -8.88      0.0000      0.00 LINEAR  3.4527E-01    126.57  0.0000E+00      0.00
   90.00    247.00     -8.98  -999.99    -8.98      0.0000      0.00 LINEAR  3.4152E-01    131.81  0.0000E+00      0.00
   90.00    248.00     -9.17  -999.99    -9.17      0.0000      0.00 LINEAR  3.3388E-01    140.12  0.0000E+00      0.00
   90.00    249.00     -9.52  -999.99    -9.52      0.0000      0.00 LINEAR  3.2073E-01    152.24  0.0000E+00      0.00
   90.00    250.00     -9.96  -999.99    -9.96      0.0000      0.00 LINEAR  3.0488E-01    169.26  0.0000E+00      0.00
   90.00    251.00    -10.19  -999.99   -10.19      0.0000      0.00 LINEAR  2.9684E-01   -167.74  0.0000E+00      0.00
   90.00    252.00     -9.65  -999.99    -9.65      0.0000      0.00 LINEAR  3.1605E-01   -139.79  0.0000E+00      0.00
   90.00    253.00     -8.02  -999.99    -8.02      0.0000      0.00 LINEAR  3.8111E-01   -111.67  0.0000E+00      0.00
   90.00    254.00     -5.73  -999.99    -5.73      0.0000      0.00 LINEAR  4.9612E-01    -87.61  0.0000E+00      0.00
   90.00    255.00     -3.33  -999.99    -3.33      0.0000      0.00 LINEAR  6.5432E-01    -67.96  0.0000E+00      0.00
   90.00    256.00     -1.08  -999.99    -1.08      0.0000      0.00 LINEAR  8.4749E-01    -51.39  0.0000E+00      0.00
   90.00    257.00      0.93  -999.99     0.93      0.0000      0.00 LINEAR  1.0686E+00    -36.76  0.0000E+00      0.00
   90.00    258.00      2.71  -999.99     2.71      0.0000      0.00 LINEAR  1.3113E+00    -23.30  0.0000E+00      0.00
   90.00    259.00      4.27  -999.99     4.27      0.0000      0.00 LINEAR  1.5695E+00    -10.57  0.0000E+00      0.00
   90.00    260.00      5.64  -999.99     5.64      0.0000      0.00 LINEAR  1.8368E+00      1.72  0.0000E+00      0.00
   90.00    261.00      6.83  -999.99     6.83      0.0000      0.00 LINEAR  2.1064E+00     13.72  0.0000E+00      0.00
   90.00    262.00      7.86  -999.99     7.86      0.0000      0.00 LINEAR  2.3717E+00     25.54  0.0000E+00      0.00
   90.00    263.00      8.74  -999.99     8.74      0.0000      0.00 LINEAR  2.6257E+00     37.27  0.0000E+00      0.00
   90.00    264.00      9.49  -999.99     9.49      0.0000      0.00 LINEAR  2.8618E+00     48.93  0.0000E+00      0.00
   90.00    265.00     10.11  -999.99    10.11      0.0000      0.00 LINEAR  3.0736E+00     60.58  0.0000E+00      0.00
   90.00    266.00     10.61  -999.99    10.61      0.0000      0.00 LINEAR  3.2554E+00     72.23  0.0000E+00      0.00
   90.00    267.00     10.99  -999.99    10.99      0.0000      0.00 LINEAR  3.4022E+00     83.90  0.0000E+00      0.00
   90.00    268.00     11.26  -999.99    11.26      0.0000      0.00 LINEAR  3.5100E+00     95.62  0.0000E+00      0.00
   90.00    269.00     11.42  -999.99    11.42      0.0000      0.00 LINEAR  3.5758E+00    107.39  0.0000E+00      0.00
   90.00    270.00     11.48  -999.99    11.48      0.0000      0.00 LINEAR  3.5980E+00    119.23  0.0000E+00      0.00
   90.00    271.00     11.43  -999.99    11.43      0.0000      0.00 LINEAR  3.5762E+00    131.15  0.0000E+00      0.00
   90.00    272.00     11.27  -999.99    11.27      0.0000      0.00 LINEAR  3.5113E+00    143.17  0.0000E+00      0.00
   90.00    273.00     11.00  -999.99    11.00      0.0000      0.00 LINEAR  3.4055E+00    155.31  0.0000E+00      0.00
   90.00    274.00     10.63  -999.99    10.63      0.0000      0.00 LINEAR  3.2620E+00    167.59  0.0000E+00      0.00
   90.00    275.00     10.14  -999.99    10.14      0.0000      0.00 LINEAR  3.0855E+00   -179.96  0.0000E+00      0.00
   90.00    276.00      9.55  -999.99     9.55      0.0000      0.00 LINEAR  2.8812E+00   -167.30  0.0000E+00      0.00
   90.00    277.00      8.84  -999.99     8.84      0.0000      0.00 LINEAR  2.6552E+00   -154.40  0.0000E+00      0.00
   90.00    278.00      8.01  -999.99     8.01      0.0000      0.00 LINEAR  2.4144E+00   -141.19  0.0000E+00      0.00
   90.00    279.00      7.07  -999.99     7.07      0.0000      0.00 LINEAR  2.1655E+00   -127.60  0.0000E+00      0.00
   90.00    280.00      6.00  -999.99     6.00      0.0000      0.00 LINEAR  1.9157E+00   -113.56  0.0000E+00      0.00
   90.00    281.00      4.82  -999.99     4.82      0.0000      0.00 LINEAR  1.6717E+00    -98.94  0.0000E+00      0.00
   90.00    282.00      3.52  -999.99     3.52      0.0000      0.00 LINEAR  1.4400E+00    -83.62  0.0000E+00      0.00
   90.00    283.00      2.13  -999.99     2.13      0.0000      0.00 LINEAR  1.2264E+00    -67.45  0.0000E+00      0.00
   90.00    284.00      0.66  -999.99     0.66      0.0000      0.00 LINEAR  1.0355E+00    -50.31  0.0000E+00      0.00
   90.00    285.00     -0.85  -999.99    -0.85      0.0000      0.00 LINEAR  8.7058E-01    -32.12  0.0000E+00      0.00
   90.00    286.00     -2.34  -999.99    -2.34      0.0000      0.00 LINEAR  7.3273E-01    -12.95  0.0000E+00      0.00
   90.00    287.00     -3.79  -999.99    -3.79      0.0000      0.00 LINEAR  6.2049E-01      6.92  0.0000E+00      0.00
   90.00    288.00     -5.17  -999.99    -5.17      0.0000      0.00 LINEAR  5.2955E-01     26.97  0.0000E+00      0.00
   90.00    289.00     -6.51  -999.99    -6.51      0.0000      0.00 LINEAR  4.5339E-01     46.58  0.0000E+00      0.00
   90.00    290.00     -7.94  -999.99    -7.94      0.0000      0.00 LINEAR  3.8477E-01     65.14  0.0000E+00      0.00
   90.00    291.00     -9.61  -999.99    -9.61      0.0000      0.00 LINEAR  3.1734E-01     82.21  0.0000E+00      0.00
   90.00    292.00    -11.80  -999.99   -11.80      0.0000      0.00 LINEAR  2.4676E-01     97.34  0.0000E+00      0.00
   90.00    293.00    -14.98  -999.99   -14.98      0.0000      0.00 LINEAR  1.7113E-01    109.49  0.0000E+00      0.00
   90.00    294.00    -20.39  -999.99   -20.39      0.0000      0.00 LINEAR  9.1751E-02    113.61  0.0000E+00      0.00
   90.00    295.00    -28.67  -999.99   -28.67      0.0000      0.00 LINEAR  3.5368E-02     55.47  0.0000E+00      0.00
   90.00    296.00    -19.67  -999.99   -19.67      0.0000      0.00 LINEAR  9.9725E-02      4.15  0.0000E+00      0.00
   90.00    297.00    -14.20  -999.99   -14.20      0.0000      0.00 LINEAR  1.8714E-01      7.00  0.0000E+00      0.00
   90.00    298.00    -10.90  -999.99   -10.90      0.0000      0.00 LINEAR  2.7376E-01     15.74  0.0000E+00      0.00
   90.00    299.00     -8.63  -999.99    -8.63      0.0000      0.00 LINEAR  3.5522E-01     25.83  0.0000E+00      0.00
   90.00    300.00     -7.01  -999.99    -7.01      0.0000      0.00 LINEAR  4.2847E-01     36.28  0.0000E+00      0.00
   90.00    301.00     -5.82  -999.99    -5.82      0.0000      0.00 LINEAR  4.9099E-01     46.80  0.0000E+00      0.00
   90.00    302.00     -4.98  -999.99    -4.98      0.0000      0.00 LINEAR  5.4075E-01     57.28  0.0000E+00      0.00
   90.00    303.00     -4.43  -999.99    -4.43      0.0000      0.00 LINEAR  5.7625E-01     67.67  0.0000E+00      0.00
   90.00    304.00     -4.13  -999.99    -4.13      0.0000      0.00 LINEAR  5.9650E-01     77.97  0.0000E+00      0.00
   90.00    305.00     -4.07  -999.99    -4.07      0.0000      0.00 LINEAR  6.0102E-01     88.19  0.0000E+00      0.00
   90.00    306.00     -4.23  -999.99    -4.23      0.0000      0.00 LINEAR  5.8987E-01     98.35  0.0000E+00      0.00
   90.00    307.00     -4.62  -999.99    -4.62      0.0000      0.00 LINEAR  5.6356E-01    108.48  0.0000E+00      0.00
   90.00    308.00     -5.27  -999.99    -5.27      0.0000      0.00 LINEAR  5.2306E-01    118.66  0.0000E+00      0.00
   90.00    309.00     -6.21  -999.99    -6.21      0.0000      0.00 LINEAR  4.6969E-01    129.00  0.0000E+00      0.00
   90.00    310.00     -7.49  -999.99    -7.49      0.0000      0.00 LINEAR  4.0515E-01    139.69  0.0000E+00      0.00
   90.00    311.00     -9.23  -999.99    -9.23      0.0000      0.00 LINEAR  3.3148E-01    151.15  0.0000E+00      0.00
   90.00    312.00    -11.64  -999.99   -11.64      0.0000      0.00 LINEAR  2.5128E-01    164.36  0.0000E+00      0.00
   90.00    313.00    -15.10  -999.99   -15.10      0.0000      0.00 LINEAR  1.6865E-01   -177.75  0.0000E+00      0.00
   90.00    314.00    -20.04  -999.99   -20.04      0.0000      0.00 LINEAR  9.5576E-02   -143.17  0.0000E+00      0.00
   90.00    315.00    -21.07  -999.99   -21.07      0.0000      0.00 LINEAR  8.4899E-02    -71.84  0.0000E+00      0.00
   90.00    316.00    -15.98  -999.99   -15.98      0.0000      0.00 LINEAR  1.5241E-01    -29.69  0.0000E+00      0.00
   90.00    317.00    -12.13  -999.99   -12.13      0.0000      0.00 LINEAR  2.3751E-01    -10.36  0.0000E+00      0.00
   90.00    318.00     -9.44  -999.99    -9.44      0.0000      0.00 LINEAR  3.2372E-01      2.62  0.0000E+00      0.00
   90.00    319.00     -7.46  -999.99    -7.46      0.0000      0.00 LINEAR  4.0683E-01     13.16  0.0000E+00      0.00
   90.00    320.00     -5.93  -999.99    -5.93      0.0000      0.00 LINEAR  4.8481E-01     22.48  0.0000E+00      0.00
   90.00    321.00     -4.74  -999.99    -4.74      0.0000      0.00 LINEAR  5.5640E-01     31.08  0.0000E+00      0.00
   90.00    322.00     -3.79  -999.99    -3.79      0.0000      0.00 LINEAR  6.2070E-01     39.17  0.0000E+00      0.00
   90.00    323.00     -3.03  -999.99    -3.03      0.0000      0.00 LINEAR  6.7712E-01     46.89  0.0000E+00      0.00
   90.00    324.00     -2.43  -999.99    -2.43      0.0000      0.00 LINEAR  7.2530E-01     54.30  0.0000E+00      0.00
   90.00    325.00     -1.97  -999.99    -1.97      0.0000      0.00 LINEAR  7.6509E-01     61.46  0.0000E+00      0.00
   90.00    326.00     -1.62  -999.99    -1.62      0.0000      0.00 LINEAR  7.9653E-01     68.39  0.0000E+00      0.00
   90.00    327.00     -1.37  -999.99    -1.37      0.0000      0.00 LINEAR  8.1978E-01     75.11  0.0000E+00      0.00
   90.00    328.00     -1.21  -999.99    -1.21      0.0000      0.00 LINEAR  8.3518E-01     81.65  0.0000E+00      0.00
   90.00    329.00     -1.13  -999.99    -1.13      0.0000      0.00 LINEAR  8.4316E-01     88.00  0.0000E+00      0.00
   90.00    330.00     -1.11  -999.99    -1.11      0.0000      0.00 LINEAR  8.4423E-01     94.19  0.0000E+00      0.00
   90.00    331.00     -1.17  -999.99    -1.17      0.0000      0.00 LINEAR  8.3898E-01    100.21  0.0000E+00      0.00
   90.00    332.00     -1.28  -999.99    -1.28      0.0000      0.00 LINEAR  8.2804E-01    106.09  0.0000E+00      0.00
   90.00    333.00     -1.45  -999.99    -1.45      0.0000      0.00 LINEAR  8.1208E-01    111.81  0.0000E+00      0.00
   90.00    334.00     -1.67  -999.99    -1.67      0.0000      0.00 LINEAR  7.9177E-01    117.40  0.0000E+00      0.00
   90.00    335.00     -1.94  -999.99    -1.94      0.0000      0.00 LINEAR  7.6778E-01    122.86  0.0000E+00      0.00
   90.00    336.00     -2.25  -999.99    -2.25      0.0000      0.00 LINEAR  7.4078E-01    128.20  0.0000E+00      0.00
   90.00    337.00     -2.60  -999.99    -2.60      0.0000      0.00 LINEAR  7.1140E-01    133.42  0.0000E+00      0.00
   90.00    338.00     -2.99  -999.99    -2.99      0.0000      0.00 LINEAR  6.8026E-01    138.53  0.0000E+00      0.00
   90.00    339.00     -3.41  -999.99    -3.41      0.0000      0.00 LINEAR  6.4792E-01    143.54  0.0000E+00      0.00
   90.00    340.00     -3.87  -999.99    -3.87      0.0000      0.00 LINEAR  6.1492E-01    148.46  0.0000E+00      0.00
   90.00    341.00     -4.35  -999.99    -4.35      0.0000      0.00 LINEAR  5.8175E-01    153.31  0.0000E+00      0.00
   90.00    342.00     -4.85  -999.99    -4.85      0.0000      0.00 LINEAR  5.4885E-01    158.08  0.0000E+00      0.00
   90.00    343.00     -5.38  -999.99    -5.38      0.0000      0.00 LINEAR  5.1661E-01    162.78  0.0000E+00      0.00
   90.00    344.00     -5.92  -999.99    -5.92      0.0000      0.00 LINEAR  4.8540E-01    167.43  0.0000E+00      0.00
   90.00    345.00     -6.47  -999.99    -6.47      0.0000      0.00 LINEAR  4.5552E-01    172.03  0.0000E+00      0.00
   90.00    346.00     -7.03  -999.99    -7.03      0.0000      0.00 LINEAR  4.2723E-01    176.58  0.0000E+00      0.00
   90.00    347.00     -7.59  -999.99    -7.59      0.0000      0.00 LINEAR  4.0076E-01   -178.92  0.0000E+00      0.00
   90.00    348.00     -8.13  -999.99    -8.13      0.0000      0.00 LINEAR  3.7627E-01   -174.48  0.0000E+00      0.00
   90.00    349.00     -8.67  -999.99    -8.67      0.0000      0.00 LINEAR  3.5391E-01   -170.12  0.0000E+00      0.00
   90.00    350.00     -9.18  -999.99    -9.18      0.0000      0.00 LINEAR  3.3375E-01   -165.86  0.0000E+00      0.00
   90.00    351.00     -9.65  -999.99    -9.65      0.0000      0.00 LINEAR  3.1584E-01   -161.74  0.0000E+00      0.00
   90.00    352.00    -10.10  -999.99   -10.10      0.0000      0.00 LINEAR  3.0018E-01   -157.81  0.0000E+00      0.00
   90.00    353.00    -10.49  -999.99   -10.49      0.0000      0.00 LINEAR  2.8672E-01   -154.12  0.0000E+00      0.00
   90.00    354.00    -10.84  -999.99   -10.84      0.0000      0.00 LINEAR  2.7540E-01   -150.74  0.0000E+00      0.00
   90.00    355.00    -11.14  -999.99   -11.14      0.0000      0.00 LINEAR  2.6612E-01   -147.73  0.0000E+00      0.00
   90.00    356.00    -11.39  -999.99   -11.39      0.0000      0.00 LINEAR  2.5875E-01   -145.16  0.0000E+00      0.00
   90.00    357.00    -11.58  -999.99   -11.58      0.0000      0.00 LINEAR  2.5317E-01   -143.09  0.0000E+00      0.00
   90.00    358.00    -11.71  -999.99   -11.71      0.0000      0.00 LINEAR  2.4928E-01   -141.57  0.0000E+00      0.00
   90.00    359.00    -11.79  -999.99   -11.79      0.0000      0.00 LINEAR  2.4698E-01   -140.64  0.0000E+00      0.00
   90.00    360.00    -11.82  -999.99   -11.82      0.0000      0.00 LINEAR  2.4622E-01   -140.33  0.0000E+00      0.00








*****  DATA CARD N0.  13 EN   0     1   361  1000 9.00000E+001 0.00000E+000 0.00000E+000 1.00000E+000 0.00000E+000 0.00000E+000

  TOTAL RUN TIME: 29 msec